12

C -0.495521 -0.374317 0.467900
C 0.186579 0.847183 0.467900
C 0.221279 -1.575817 0.467900
C 1.738387 -1.500646 0.698213
C 2.420487 -0.279146 0.698213
C 1.703687 0.922354 0.698213
H 2.231487 1.867254 0.698213
H -0.368021 1.776583 0.467900
H -1.577721 -0.389817 0.467900
H -0.306421 -2.520717 0.467900
H 2.292887 -2.430146 0.698213
H 3.502687 -0.263746 0.698213
