12

C -0.500300 -0.374546 0.467210
C 0.181800 0.846954 0.467210
C 0.216500 -1.576046 0.467210
C 1.769620 -1.499269 0.702224
C 2.451720 -0.277769 0.702224
C 1.734920 0.923731 0.702224
H 2.262720 1.868631 0.702224
H -0.372800 1.776354 0.467210
H -1.582500 -0.390046 0.467210
H -0.311200 -2.520946 0.467210
H 2.324120 -2.428769 0.702224
H 3.533920 -0.262369 0.702224
