112

C -1.093410 -0.681547 8.388699
C 0.122452 0.038492 8.849808
C 1.348948 -0.693748 8.388699
C 0.104538 1.432385 8.388699
H -1.290620 -0.846988 7.343287
H 0.142832 0.051858 9.960551
H 1.497902 -0.831728 7.312396
H 0.889626 2.146124 8.605912
C -7.123023 -4.162426 -1.507526
C -7.083802 -4.157842 -2.993406
C -7.130067 -2.744196 -3.495952
C -5.902544 -4.880078 -3.482164
H -6.364966 -3.673179 -0.920045
H -7.983003 -4.678596 -3.386595
H -6.330933 -2.058836 -3.193759
H -5.667820 -5.005028 -4.532050
C 7.460776 -4.220432 -1.528027
C 7.471545 -4.224936 -3.011748
Cl 8.948520 -5.063336 -3.531483
C 6.252165 -4.903841 -3.522020
C 7.437414 -2.825744 -3.557638
H 8.263900 -3.771671 -0.962450
H 6.094345 -4.998771 -4.586020
H 6.567661 -2.243293 -3.272365
C 0.158850 8.442835 -1.508701
C 0.157366 8.454413 -2.992422
Cl 0.144953 10.152712 -3.512157
C 1.355004 7.737852 -3.502694
C -1.037304 7.725259 -3.538312
H -0.631351 8.913981 -0.943124
H 1.516126 7.648641 -4.566694
H -1.106845 6.680806 -3.253039
N -3.256733 -1.922471 4.501247
C -4.644031 -2.296032 4.524261
C -4.967935 -3.272630 3.397386
N -4.719738 -2.767137 2.112170
H -5.286652 -1.394730 4.447293
H -4.817377 -2.847790 5.473283
H -4.277752 -4.147843 3.570551
H -6.009205 -3.616358 3.503354
N 3.047348 -1.663579 4.926664
C 3.947177 -2.212264 3.900792
C 4.932639 -2.831831 3.093053
Cl 6.079941 -3.715316 4.042441
N 5.028938 -2.807651 1.690742
H 4.123756 -1.249898 3.467649
H 3.656132 -3.189447 4.225254
H 4.656066 -2.398653 2.154529
C 7.116519 -4.632270 4.020428
C 7.242965 -3.379474 4.864504
H 6.967315 -4.359014 2.996715
H 6.282007 -5.208959 4.360906
H 8.010839 -5.213112 4.107918
H 6.348568 -2.798667 4.777128
H 8.077473 -2.802755 4.524122
H 7.392096 -3.652795 5.888236
N 0.107407 3.303968 5.545155
C -0.306819 4.666414 5.276178
C 0.319515 5.162572 3.968058
C -0.120200 6.593188 3.692400
C 0.483764 7.108736 2.406354
N 0.107407 6.330250 1.265346
H 0.145247 5.293685 6.093575
H -1.399553 4.798284 5.263240
H 1.422239 5.200031 4.079854
H 0.030788 4.508429 3.131550
H 0.176916 7.202625 4.550057
H -1.215951 6.627838 3.594160
H 1.595776 7.150806 2.457838
H 0.141129 8.149424 2.246228
N -2.546833 -4.794725 -3.443787
C -1.540606 -5.815357 -3.658281
C -0.186074 -5.167829 -3.967466
C 0.864967 -6.245474 -4.191063
C 2.212671 -5.634195 -4.498485
N 2.694840 -4.794725 -3.443787
H -1.845852 -6.357766 -4.595611
H -1.453907 -6.528147 -2.823993
H -0.255727 -4.608748 -4.922702
H 0.119263 -4.504182 -3.144452
H 0.516552 -6.884446 -5.006899
H 0.965185 -6.854989 -3.280036
H 2.194924 -5.044394 -5.443371
H 2.944255 -6.450307 -4.656018
N -5.357077 0.110274 -3.439915
C -5.322819 1.252386 -4.331316
C -4.711804 2.463695 -3.617849
C -4.678978 3.658380 -4.560001
C -4.080367 4.868966 -3.881309
N -2.736240 4.649696 -3.439915
H -6.397145 1.520180 -4.531516
H -4.803071 1.052421 -5.280790
H -5.366048 2.760994 -2.773172
H -3.695928 2.229751 -3.265319
H -5.703431 3.847533 -4.891641
H -4.060074 3.416778 -5.437559
H -4.691365 5.201233 -3.011097
H -4.078059 5.712394 -4.598731
N 5.664833 0.162483 -3.510603
C 6.044984 1.543854 -3.728525
C 4.806046 2.392632 -4.035533
C 5.213138 3.841303 -4.262749
C 4.009010 4.702295 -4.568116
N 3.043997 4.701905 -3.510603
H 6.664617 1.549132 -4.667672
H 6.621353 1.976732 -2.896636
H 4.353917 2.051166 -4.988885
H 4.081040 2.326621 -3.210294
H 5.938334 3.857680 -5.080728
H 5.693531 4.234381 -3.353776
H 3.504355 4.390439 -5.511015
H 4.349530 5.743654 -4.728390
