112

C -1.051716 -0.674231 7.558336
C 0.164147 0.045809 8.019445
C 1.390643 -0.686431 7.558336
C 0.146233 1.439702 7.558336
H -1.248925 -0.839672 6.512924
H 0.184527 0.059175 9.130188
H 1.539596 -0.824412 6.482033
H 0.931321 2.153441 7.775549
C -6.406566 -3.765292 -1.245648
C -6.367345 -3.760709 -2.731528
C -6.413609 -2.347062 -3.234073
C -5.186086 -4.482944 -3.220286
H -5.648508 -3.276045 -0.658167
H -7.266545 -4.281462 -3.124717
H -5.614475 -1.661702 -2.931881
H -4.951363 -4.607895 -4.270172
C 6.845478 -3.833943 -1.274644
C 6.856247 -3.838446 -2.758364
Cl 8.333223 -4.676846 -3.278100
C 5.636868 -4.517351 -3.268636
C 6.822116 -2.439255 -3.304254
H 7.648602 -3.385182 -0.709066
H 5.479047 -4.612281 -4.332636
H 5.952363 -1.856804 -3.018982
C 0.213691 7.680676 -1.251310
C 0.212206 7.692254 -2.735030
Cl 0.199794 9.390553 -3.254766
C 1.409845 6.975693 -3.245302
C -0.982464 6.963100 -3.280921
H -0.576510 8.151822 -0.685733
H 1.570967 6.886481 -4.309303
H -1.052005 5.918647 -2.995648
N -2.809300 -1.679062 4.153559
C -4.196597 -2.052624 4.176573
C -4.520501 -3.029222 3.049698
N -4.272304 -2.523729 1.764482
H -4.839219 -1.151321 4.099605
H -4.369943 -2.604382 5.125595
H -3.830319 -3.904435 3.222863
H -5.561771 -3.372950 3.155666
N 2.618169 -1.379750 4.577695
C 3.517997 -1.928435 3.551823
C 4.503459 -2.548002 2.744084
Cl 5.650762 -3.431487 3.693471
N 4.599759 -2.523822 1.341772
H 3.694576 -0.966069 3.118679
H 3.226953 -2.905618 3.876284
H 4.226886 -2.114824 1.805560
C 6.687339 -4.348441 3.671459
C 6.813785 -3.095646 4.515535
H 6.538135 -4.075186 2.647746
H 5.852828 -4.925130 4.011937
H 7.581659 -4.929284 3.758949
H 5.919389 -2.514838 4.428159
H 7.648294 -2.518927 4.175153
H 6.962916 -3.368967 5.539266
N 0.150156 2.854980 5.224430
C -0.264070 4.217425 4.955453
C 0.362265 4.713583 3.647333
C -0.077451 6.144199 3.371675
C 0.526514 6.659748 2.085629
N 0.150156 5.881261 0.944622
H 0.187996 4.844697 5.772850
H -1.356803 4.349296 4.942515
H 1.464988 4.751042 3.759129
H 0.073538 4.059441 2.810826
H 0.219665 6.753637 4.229332
H -1.173201 6.178850 3.273435
H 1.638525 6.701817 2.137113
H 0.183879 7.700436 1.925503
N -2.522192 -4.338173 -3.145104
C -1.515964 -5.358805 -3.359598
C -0.161432 -4.711277 -3.668783
C 0.889608 -5.788922 -3.892380
C 2.237312 -5.177642 -4.199802
N 2.719482 -4.338173 -3.145104
H -1.821211 -5.901214 -4.296928
H -1.429265 -6.071595 -2.525310
H -0.231086 -4.152195 -4.624019
H 0.143904 -4.047629 -2.845769
H 0.541193 -6.427893 -4.708217
H 0.989826 -6.398436 -2.981353
H 2.219565 -4.587842 -5.144688
H 2.968896 -5.993754 -4.357335
N -4.929061 -0.122103 -3.133606
C -4.894803 1.020009 -4.025007
C -4.283788 2.231319 -3.311540
C -4.250962 3.426003 -4.253692
C -3.652351 4.636589 -3.575001
N -2.308224 4.417319 -3.133606
H -5.969129 1.287803 -4.225207
H -4.375055 0.820044 -4.974481
H -4.938032 2.528617 -2.466863
H -3.267913 1.997374 -2.959010
H -5.275415 3.615156 -4.585332
H -3.632058 3.184401 -5.131250
H -4.263349 4.968857 -2.704788
H -3.650043 5.480017 -4.292422
N 5.346166 -0.053824 -3.225311
C 5.726316 1.327547 -3.443233
C 4.487378 2.176325 -3.750240
C 4.894470 3.624996 -3.977457
C 3.690343 4.485987 -4.282823
N 2.725329 4.485598 -3.225311
H 6.345950 1.332824 -4.382380
H 6.302685 1.760425 -2.611344
H 4.035250 1.834859 -4.703593
H 3.762372 2.110314 -2.925001
H 5.619666 3.641373 -4.795436
H 5.374863 4.018074 -3.068483
H 3.185688 4.174132 -5.225723
H 4.030862 5.527347 -4.443098
