112

C -0.961414 -0.657046 5.806291
C 0.254448 0.062994 6.267400
C 1.480944 -0.669246 5.806291
C 0.236534 1.456887 5.806291
H -1.158623 -0.822487 4.760880
H 0.274829 0.076360 7.378143
H 1.629898 -0.807227 4.729988
H 1.021623 2.170625 6.023504
C -4.903824 -2.931911 -0.700095
C -4.864603 -2.927327 -2.185975
C -4.910868 -1.513681 -2.688520
C -3.683345 -3.649563 -2.674733
H -4.145767 -2.442664 -0.112614
H -5.763804 -3.448081 -2.579164
H -4.111733 -0.828321 -2.386328
H -3.448621 -3.774513 -3.724619
C 5.538595 -3.009829 -0.738170
C 5.549364 -3.014333 -2.221891
Cl 7.026340 -3.852733 -2.741626
C 4.329984 -3.693238 -2.732163
C 5.515233 -1.615141 -2.767781
H 6.341719 -2.561068 -0.172593
H 4.172164 -3.788168 -3.796163
H 4.645480 -1.032690 -2.482508
C 0.331926 6.073000 -0.710527
C 0.330442 6.084578 -2.194247
Cl 0.318029 7.782877 -2.713983
C 1.528080 5.368017 -2.704519
C -0.864229 5.355425 -2.740138
H -0.458275 6.544146 -0.144950
H 1.689202 5.278806 -3.768519
H -0.933770 4.310971 -2.454865
N -1.819384 -1.140154 3.383552
C -3.206682 -1.513715 3.406567
C -3.530585 -2.490313 2.279691
N -3.282389 -1.984820 0.994475
H -3.849303 -0.612412 3.329598
H -3.380028 -2.065473 4.355588
H -2.840403 -3.365526 2.452856
H -4.571856 -2.834041 2.385659
N 1.675881 -0.753547 3.807235
C 2.575710 -1.302232 2.781363
C 3.561172 -1.921798 1.973625
Cl 4.708474 -2.805283 2.923012
N 3.657471 -1.897618 0.571313
H 2.752289 -0.339866 2.348220
H 2.284665 -2.279414 3.105825
H 3.284599 -1.488621 1.035101
C 5.745051 -3.722237 2.901000
C 5.871498 -2.469442 3.745076
H 5.595847 -3.448982 1.877287
H 4.910540 -4.298926 3.241477
H 6.639371 -4.303080 2.988490
H 4.977101 -1.888635 3.657700
H 6.706006 -1.892723 3.404693
H 6.020628 -2.742763 4.768807
N 0.247879 1.852262 4.504706
C -0.166348 3.214708 4.235729
C 0.459987 3.710865 2.927610
C 0.020272 5.141481 2.651952
C 0.624236 5.657030 1.365906
N 0.247879 4.878543 0.224898
H 0.285719 3.841979 5.053126
H -1.259081 3.346578 4.222792
H 1.562711 3.748325 3.039405
H 0.171260 3.056723 2.091102
H 0.317388 5.750919 3.509609
H -1.075479 5.176132 2.553711
H 1.736248 5.699100 1.417390
H 0.281601 6.697718 1.205780
N -2.464893 -3.313846 -2.478320
C -1.458666 -4.334477 -2.692814
C -0.104133 -3.686950 -3.001999
C 0.946907 -4.764594 -3.225596
C 2.294611 -4.153315 -3.533018
N 2.776781 -3.313846 -2.478320
H -1.763912 -4.876887 -3.630144
H -1.371966 -5.047267 -1.858526
H -0.173787 -3.127868 -3.957235
H 0.201203 -3.023302 -2.178985
H 0.598492 -5.403566 -4.041433
H 1.047125 -5.374109 -2.314569
H 2.276864 -3.563514 -4.477904
H 3.026195 -4.969427 -3.690551
N -3.975142 -0.637305 -2.454874
C -3.940884 0.504807 -3.346276
C -3.329870 1.716116 -2.632809
C -3.297044 2.910801 -3.574961
C -2.698432 4.121387 -2.896269
N -1.354306 3.902117 -2.454874
H -5.015210 0.772601 -3.546476
H -3.421136 0.304842 -4.295749
H -3.984113 2.013415 -1.788132
H -2.313994 1.482172 -2.280279
H -4.321496 3.099954 -3.906601
H -2.678140 2.669199 -4.452519
H -3.309430 4.453654 -2.026056
H -2.696125 4.964815 -3.613691
N 4.623758 -0.544106 -2.579023
C 5.003909 0.837265 -2.796945
C 3.764970 1.686042 -3.103953
C 4.172062 3.134714 -3.331169
C 2.967935 3.995705 -3.636536
N 2.002921 3.995316 -2.579023
H 5.623542 0.842542 -3.736092
H 5.580277 1.270143 -1.965056
H 3.312842 1.344577 -4.057305
H 3.039964 1.620032 -2.278714
H 4.897259 3.151091 -4.149148
H 4.652456 3.527791 -2.422196
H 2.463280 3.683850 -4.579435
H 3.308455 5.037064 -3.796810
