112

C -1.162586 -0.692872 9.796155
C 0.053277 0.027167 10.257264
C 1.279772 -0.705073 9.796155
C 0.035363 1.421060 9.796155
H -1.359795 -0.858314 8.750743
H 0.073657 0.040533 11.368007
H 1.428726 -0.843054 8.719852
H 0.820451 2.134799 10.013368
C -8.343798 -4.838884 -1.956085
C -8.304577 -4.834301 -3.441966
C -8.350842 -3.420654 -3.944511
C -7.123318 -5.556537 -3.930724
H -7.585741 -4.349637 -1.368605
H -9.203778 -5.355054 -3.835155
H -7.551707 -2.735295 -3.642319
H -6.888595 -5.681487 -4.980609
C 8.497984 -4.869945 -1.956171
C 8.508753 -4.874449 -3.439892
Cl 9.985729 -5.712849 -3.959627
C 7.289374 -5.553354 -3.950164
C 8.474622 -3.475257 -3.985782
H 9.301109 -4.421184 -1.390594
H 7.131553 -5.648284 -5.014164
H 7.604869 -2.892806 -3.700509
C 0.067484 9.735333 -1.946519
C 0.066000 9.746911 -3.430240
Cl 0.053587 11.445209 -3.949975
C 1.263638 9.030350 -3.940512
C -1.128670 9.017757 -3.976130
H -0.722717 10.206479 -1.380942
H 1.424760 8.941138 -5.004512
H -1.198212 7.973303 -3.690857
N -3.984978 -2.318453 5.066743
C -5.372276 -2.692014 5.089757
C -5.696179 -3.668612 3.962882
N -5.447983 -3.163119 2.677666
H -6.014897 -1.790711 5.012788
H -5.545622 -3.243772 6.038779
H -5.005997 -4.543825 4.136047
H -6.737450 -4.012340 4.068849
N 3.750621 -2.126886 5.495990
C 4.650449 -2.675571 4.470118
C 5.635911 -3.295137 3.662379
Cl 6.783214 -4.178622 4.611766
N 5.732211 -3.270957 2.260067
H 4.827029 -1.713205 4.036974
H 4.359405 -3.652753 4.794580
H 5.359339 -2.861960 2.723855
C 7.819791 -5.095576 4.589754
C 7.946238 -3.842781 5.433830
H 7.670587 -4.822321 3.566041
H 6.985280 -5.672265 4.930232
H 8.714111 -5.676419 4.677244
H 7.051841 -3.261973 5.346454
H 8.780746 -3.266062 5.093448
H 8.095368 -4.116102 6.457561
N 0.039643 4.029481 6.061463
C -0.374583 5.391927 5.792486
C 0.251752 5.888084 4.484367
C -0.187964 7.318701 4.208709
C 0.416001 7.834249 2.922663
N 0.039643 7.055762 1.781655
H 0.077483 6.019198 6.609883
H -1.467316 5.523797 5.779549
H 1.354475 5.925544 4.596162
H -0.036975 5.233942 3.647859
H 0.109152 7.928138 5.066366
H -1.283714 7.353351 4.110468
H 1.528012 7.876319 2.974147
H 0.073366 8.874937 2.762537
N -2.585328 -5.529808 -3.926567
C -1.579101 -6.550440 -4.141061
C -0.224569 -5.902912 -4.450246
C 0.826471 -6.980557 -4.673843
C 2.174175 -6.369277 -4.981265
N 2.656345 -5.529808 -3.926567
H -1.884347 -7.092849 -5.078391
H -1.492402 -7.263230 -3.306773
H -0.294222 -5.343830 -5.405483
H 0.080767 -5.239264 -3.627232
H 0.478056 -7.619528 -5.489680
H 0.926690 -7.590071 -3.762817
H 2.156428 -5.779477 -5.926152
H 2.905759 -7.185389 -5.138798
N -6.049932 0.487994 -3.938029
C -6.015674 1.630106 -4.829431
C -5.404659 2.841415 -4.115964
C -5.371833 4.036100 -5.058116
C -4.773222 5.246686 -4.379424
N -3.429095 5.027416 -3.938029
H -7.090000 1.897900 -5.029630
H -5.495926 1.430141 -5.778904
H -6.058903 3.138714 -3.271287
H -4.388784 2.607471 -3.763434
H -6.396286 4.225253 -5.389756
H -4.752929 3.794498 -5.935674
H -5.384220 5.578953 -3.509211
H -4.770914 6.090114 -5.096846
N 6.174007 0.508116 -3.966664
C 6.554158 1.889487 -4.184586
C 5.315220 2.738264 -4.491593
C 5.722312 4.186936 -4.718810
C 4.518184 5.047927 -5.024176
N 3.553171 5.047538 -3.966664
H 7.173791 1.894764 -5.123733
H 7.130527 2.322365 -3.352697
H 4.863091 2.396799 -5.444946
H 4.590214 2.672254 -3.666354
H 6.447508 4.203313 -5.536789
H 6.202705 4.580013 -3.809836
H 4.013529 4.736072 -5.967076
H 4.858704 6.089286 -5.184450
