112

C -1.013310 -0.667151 6.805429
C 0.202552 0.052888 7.266538
C 1.429048 -0.679351 6.805429
C 0.184638 1.446781 6.805429
H -1.210520 -0.832592 5.760018
H 0.222932 0.066255 8.377281
H 1.578002 -0.817332 5.729126
H 0.969726 2.160520 7.022642
C -5.759318 -3.406421 -1.010022
C -5.720097 -3.401838 -2.495902
C -5.766362 -1.988191 -2.998448
C -4.538838 -4.124073 -2.984660
H -5.001261 -2.917174 -0.422541
H -6.619298 -3.922591 -2.889091
H -4.967227 -1.302831 -2.696256
H -4.304115 -4.249023 -4.034546
C 6.285337 -3.481278 -1.044406
C 6.296106 -3.485782 -2.528127
Cl 7.773082 -4.324182 -3.047862
C 5.076727 -4.164687 -3.038399
C 6.261975 -2.086590 -3.074017
H 7.088462 -3.032517 -0.478829
H 4.918906 -4.259617 -4.102399
H 5.392222 -1.504139 -2.788744
C 0.264062 6.989772 -1.018531
C 0.262577 7.001350 -2.502251
Cl 0.250165 8.699649 -3.021987
C 1.460216 6.284789 -3.012523
C -0.932093 6.272196 -3.048142
H -0.526139 7.460918 -0.452954
H 1.621338 6.195578 -4.076524
H -1.001634 5.227743 -2.762869
N -2.391693 -1.451787 3.828860
C -3.778991 -1.825348 3.851875
C -4.102895 -2.801946 2.724999
N -3.854698 -2.296453 1.439783
H -4.421612 -0.924046 3.774906
H -3.952337 -2.377106 4.800896
H -3.412712 -3.677160 2.898164
H -5.144165 -3.145675 2.830967
N 2.219481 -1.115321 4.252441
C 3.119310 -1.664006 3.226569
C 4.104772 -2.283572 2.418831
Cl 5.252074 -3.167057 3.368218
N 4.201071 -2.259392 1.016519
H 3.295889 -0.701640 2.793426
H 2.828265 -2.641188 3.551031
H 3.828199 -1.850395 1.480307
C 6.288652 -4.084011 3.346206
C 6.415098 -2.831216 4.190282
H 6.139448 -3.810756 2.322493
H 5.454140 -4.660700 3.686683
H 7.182972 -4.664854 3.433696
H 5.520701 -2.250408 4.102906
H 7.249606 -2.254497 3.849899
H 6.564229 -3.104537 5.214013
N 0.190844 2.433589 4.922559
C -0.223382 3.796035 4.653582
C 0.402953 4.292193 3.345462
C -0.036763 5.722809 3.069804
C 0.567202 6.238357 1.783758
N 0.190844 5.459871 0.642750
H 0.228684 4.423306 5.470978
H -1.316115 3.927905 4.640644
H 1.505676 4.329652 3.457257
H 0.114226 3.638050 2.508954
H 0.260353 6.332246 3.927461
H -1.132513 5.757459 2.971564
H 1.679213 6.280427 1.835242
H 0.224567 7.279045 1.623632
N -2.498495 -3.908509 -2.864844
C -1.492268 -4.929140 -3.079338
C -0.137736 -4.281613 -3.388523
C 0.913305 -5.359257 -3.612120
C 2.261009 -4.747978 -3.919542
N 2.743178 -3.908509 -2.864844
H -1.797514 -5.471550 -4.016668
H -1.405569 -5.641931 -2.245050
H -0.207389 -3.722531 -4.343760
H 0.167601 -3.617965 -2.565509
H 0.564889 -5.998229 -4.427957
H 1.013523 -5.968772 -2.701094
H 2.243261 -4.158177 -4.864429
H 2.992592 -5.564090 -4.077075
N -4.527861 -0.339245 -2.847475
C -4.493602 0.802867 -3.738877
C -3.882588 2.014176 -3.025409
C -3.849762 3.208861 -3.967562
C -3.251150 4.419447 -3.288870
N -1.907024 4.200177 -2.847475
H -5.567929 1.070661 -3.939076
H -3.973855 0.602902 -4.688350
H -4.536831 2.311475 -2.180733
H -2.866712 1.780232 -2.672879
H -4.874214 3.398014 -4.299202
H -3.230858 2.967259 -4.845119
H -3.862148 4.751714 -2.418657
H -3.248843 5.262875 -4.006292
N 5.044446 -0.258611 -2.955301
C 5.424597 1.122760 -3.173223
C 4.185659 1.971537 -3.480231
C 4.592750 3.420209 -3.707447
C 3.388623 4.281200 -4.012813
N 2.423610 4.280811 -2.955301
H 6.044230 1.128037 -4.112370
H 6.000965 1.555638 -2.341334
H 3.733530 1.630072 -4.433583
H 3.460653 1.905527 -2.654991
H 5.317947 3.436586 -4.525426
H 5.073144 3.813286 -2.798473
H 2.883968 3.969345 -4.955713
H 3.729143 5.322559 -4.173088
