112

C -1.761724 -0.452915 6.928818
C -0.545861 0.267124 7.389927
C 0.680634 -0.465116 6.928818
C -0.563775 1.661017 6.928818
H -1.958933 -0.618356 5.883406
H -0.525481 0.280490 8.500669
H 0.829588 -0.603096 5.852515
H 0.221313 2.374756 7.146031
C -6.209833 -3.671010 0.999897
C -6.170612 -3.666427 -0.485984
C -6.216877 -2.252780 -0.988529
C -4.989353 -4.388662 -0.974741
H -5.451776 -3.181763 1.587378
H -7.069812 -4.187180 -0.879172
H -5.417742 -1.567420 -0.686337
H -4.754630 -4.513613 -2.024627
C 4.504077 -2.394247 -0.438796
C 4.514846 -2.398750 -1.922516
Cl 5.991822 -3.237150 -2.442252
C 3.295467 -3.077655 -2.432788
C 4.480715 -0.999559 -2.468406
H 5.307202 -1.945485 0.126782
H 3.137646 -3.172585 -3.496788
H 3.610962 -0.417107 -2.183133
C -0.112304 5.929886 -0.653761
C -0.113789 5.941464 -2.137482
Cl -0.126201 7.639762 -2.657217
C 1.083850 5.224903 -2.647754
C -1.308459 5.212310 -2.683372
H -0.902505 6.401031 -0.088184
H 1.244972 5.135691 -3.711754
H -1.378000 4.167856 -2.398099
N -3.626420 -2.116573 4.776019
C -5.013718 -2.490134 4.799033
C -5.337622 -3.466732 3.672158
N -5.089425 -2.961239 2.386942
H -5.656339 -1.588831 4.722064
H -5.187064 -3.041892 5.748055
H -4.647439 -4.341945 3.845323
H -6.378892 -3.810460 3.778126
N 2.778052 -1.476745 4.693824
C 3.677880 -2.025430 3.667952
C 4.663342 -2.644996 2.860213
Cl 5.810644 -3.528482 3.809600
N 4.759641 -2.620816 1.457901
H 3.854459 -1.063064 3.234808
H 3.386836 -3.002613 3.992413
H 4.386769 -2.211819 1.921689
C 8.329538 -5.430045 5.000527
C 8.455984 -4.177249 5.844603
H 8.180334 -5.156789 3.976814
H 7.495027 -6.006733 5.341004
H 9.223858 -6.010887 5.088016
H 7.561588 -3.596442 5.757227
H 9.290492 -3.600530 5.504220
H 8.605115 -4.450570 6.868334
N 0.018646 2.650166 5.248325
C -0.395580 4.012612 4.979348
C 0.230755 4.508770 3.671228
C -0.208961 5.939386 3.395570
C 0.395004 6.454934 2.109524
N 0.018646 5.676448 0.968516
H 0.056486 4.639883 5.796745
H -1.488313 4.144483 4.966410
H 1.333478 4.546229 3.783024
H -0.057972 3.854627 2.834720
H 0.088155 6.548823 4.253227
H -1.304711 5.974036 3.297330
H 1.507015 6.497004 2.161008
H 0.052369 7.495622 1.949398
N -3.372867 -4.739681 -3.195157
C -2.366639 -5.760313 -3.409651
C -1.012107 -5.112785 -3.718836
C 0.038933 -6.190430 -3.942433
C 1.386637 -5.579151 -4.249855
N 1.868807 -4.739681 -3.195157
H -2.671886 -6.302722 -4.346981
H -2.279940 -6.473103 -2.575363
H -1.081761 -4.553704 -4.674072
H -0.706771 -4.449138 -2.895822
H -0.309482 -6.829402 -4.758270
H 0.139151 -6.799945 -3.031406
H 1.368890 -4.989350 -5.194741
H 2.118221 -6.395263 -4.407388
N -5.472912 0.119591 -3.386405
C -5.438654 1.261703 -4.277807
C -4.827639 2.473012 -3.564339
C -4.794813 3.667697 -4.506492
C -4.196202 4.878283 -3.827800
N -2.852075 4.659013 -3.386405
H -6.512980 1.529497 -4.478006
H -4.918906 1.061738 -5.227280
H -5.481883 2.770311 -2.719663
H -3.811763 2.239068 -3.211809
H -5.819266 3.856850 -4.838132
H -4.175909 3.426095 -5.384049
H -4.807200 5.210550 -2.957587
H -4.193894 5.721711 -4.545222
N 5.235024 0.301642 -3.297466
C 5.615174 1.683013 -3.515388
C 4.376236 2.531791 -3.822396
C 4.783328 3.980462 -4.049612
C 3.579201 4.841454 -4.354979
N 2.614187 4.841065 -3.297466
H 6.234808 1.688291 -4.454535
H 6.191543 2.115892 -2.683499
H 3.924108 2.190326 -4.775748
H 3.651230 2.465781 -2.997157
H 5.508524 3.996840 -4.867591
H 5.263722 4.373540 -3.140638
H 3.074546 4.529598 -5.297878
H 3.919720 5.882813 -4.515253
