112

C -1.672818 -0.749207 4.820796
C -0.456956 -0.029167 5.281906
C 0.769540 -0.761407 4.820796
C -0.474870 1.364726 4.820796
H -1.870028 -0.914648 3.775385
H -0.436576 -0.015801 6.392648
H 0.918494 -0.899388 3.744493
H 0.310218 2.078465 5.038009
C -4.382036 -2.222165 0.232333
C -4.342816 -2.217582 -1.253548
C -4.389080 -0.803936 -1.756093
C -3.161557 -2.939818 -1.742306
H -3.623979 -1.732918 0.819814
H -5.242016 -2.738335 -1.646737
H -3.589946 -0.118576 -1.453901
H -2.926833 -3.064768 -2.792191
C 4.438314 -2.595280 -0.285309
C 4.449083 -2.599783 -1.769030
Cl 5.926059 -3.438184 -2.288765
C 3.229703 -3.278688 -2.279302
C 4.414952 -1.200592 -2.314920
H 5.241438 -2.146519 0.280268
H 3.071883 -3.373618 -3.343302
H 3.545199 -0.618141 -2.029647
C -0.059616 5.977136 -0.430252
C -0.061101 5.988714 -1.913972
Cl -0.073513 7.687012 -2.433708
C 1.136538 5.272153 -2.424244
C -1.255771 5.259560 -2.459862
H -0.849817 6.448281 0.135326
H 1.297660 5.182941 -3.488244
H -1.325312 4.215106 -2.174589
N -3.008920 -1.749986 4.737923
C -4.396218 -2.123548 4.760938
C -4.720122 -3.100146 3.634062
N -4.471925 -2.594653 2.348847
H -5.038839 -1.222245 4.683969
H -4.569564 -2.675306 5.709959
H -4.029939 -3.975359 3.807227
H -5.761392 -3.443874 3.740030
N 2.314241 -1.270454 4.588278
C 3.214070 -1.819139 3.562406
C 4.199531 -2.438705 2.754668
Cl 5.346834 -3.322190 3.704055
N 4.295831 -2.414525 1.352356
H 3.390649 -0.856773 3.129263
H 2.923025 -2.796321 3.886868
H 3.922959 -2.005528 1.816143
C 8.329538 -5.430045 5.000527
C 8.455984 -4.177249 5.844603
H 8.180334 -5.156789 3.976814
H 7.495027 -6.006733 5.341004
H 9.223858 -6.010887 5.088016
H 7.561588 -3.596442 5.757227
H 9.290492 -3.600530 5.504220
H 8.605115 -4.450570 6.868334
N 0.042050 3.095887 5.542426
C -0.372176 4.458333 5.273449
C 0.254159 4.954491 3.965330
C -0.185557 6.385107 3.689672
C 0.418408 6.900655 2.403626
N 0.042050 6.122169 1.262618
H 0.079890 5.085604 6.090846
H -1.464909 4.590204 5.260512
H 1.356882 4.991950 4.077125
H -0.034568 4.300348 3.128822
H 0.111559 6.994544 4.547329
H -1.281307 6.419757 3.591431
H 1.530419 6.942725 2.455109
H 0.075773 7.941343 2.243500
N -3.533247 -4.269044 -2.768819
C -2.527020 -5.289676 -2.983313
C -1.172488 -4.642148 -3.292498
C -0.121448 -5.719793 -3.516095
C 1.226256 -5.108514 -3.823517
N 1.708426 -4.269044 -2.768819
H -2.832266 -5.832085 -3.920643
H -2.440321 -6.002466 -2.149025
H -1.242142 -4.083067 -4.247734
H -0.867152 -3.978501 -2.469484
H -0.469863 -6.358765 -4.331931
H -0.021229 -6.329307 -2.605068
H 1.208509 -4.518713 -4.768403
H 1.957840 -5.924626 -3.981050
N -5.049192 -0.141773 -2.979837
C -5.014934 1.000339 -3.871239
C -4.403919 2.211648 -3.157772
C -4.371093 3.406333 -4.099924
C -3.772482 4.616919 -3.421232
N -2.428355 4.397649 -2.979837
H -6.089260 1.268133 -4.071439
H -4.495186 0.800374 -4.820712
H -5.058163 2.508947 -2.313095
H -3.388043 1.977704 -2.805242
H -5.395546 3.595486 -4.431564
H -3.752189 3.164731 -4.977482
H -4.383480 4.949186 -2.551020
H -3.770174 5.460347 -4.138654
N 5.083928 0.080763 -3.124432
C 5.464078 1.462134 -3.342355
C 4.225140 2.310911 -3.649362
C 4.632232 3.759583 -3.876579
C 3.428105 4.620574 -4.181945
N 2.463091 4.620185 -3.124432
H 6.083712 1.467411 -4.281502
H 6.040447 1.895012 -2.510466
H 3.773011 1.969446 -4.602715
H 3.500134 2.244901 -2.824123
H 5.357428 3.775960 -4.694557
H 5.112625 4.152660 -2.967605
H 2.923450 4.308719 -5.124845
H 3.768624 5.661933 -4.342219
