112

C -2.393752 -1.382033 8.927153
C -1.177889 -0.661994 9.388263
C 0.048606 -1.394234 8.927153
C -1.195803 0.731899 8.927153
H -2.590961 -1.547474 7.881742
H -1.157509 -0.648628 10.499005
H 0.197560 -1.532214 7.850850
H -0.410715 1.445638 9.144366
C -8.152340 -4.866120 -0.929524
C -8.113119 -4.861536 -2.415405
C -8.159384 -3.447890 -2.917950
C -6.931860 -5.583772 -2.904162
H -7.394283 -4.376873 -0.342043
H -9.012320 -5.382290 -2.808593
H -7.360249 -2.762530 -2.615758
H -6.697137 -5.708722 -3.954048
C 4.530808 -2.415636 -0.292335
C 4.541577 -2.420139 -1.776055
Cl 6.018553 -3.258539 -2.295791
C 3.322198 -3.099044 -2.286327
C 4.507446 -1.020948 -2.321946
H 5.333933 -1.966874 0.273243
H 3.164377 -3.193974 -3.350327
H 3.637694 -0.438497 -2.036673
C 0.069065 8.215496 -1.373902
C 0.067581 8.227074 -2.857622
Cl 0.055169 9.925373 -3.377358
C 1.265220 7.510513 -3.367894
C -1.127089 7.497921 -3.403512
H -0.721135 8.686642 -0.808324
H 1.426342 7.421302 -4.431894
H -1.196630 6.453467 -3.118239
N -4.508827 -2.603173 5.473250
C -5.896125 -2.976734 5.496264
C -6.220029 -3.953332 4.369389
N -5.971832 -3.447839 3.084173
H -6.538746 -2.075431 5.419295
H -6.069471 -3.528492 6.445285
H -5.529846 -4.828545 4.542553
H -7.261299 -4.297060 4.475356
N 2.901062 -1.547727 4.742543
C 3.800891 -2.096412 3.716671
C 4.786353 -2.715979 2.908933
Cl 5.933655 -3.599464 3.858320
N 4.882652 -2.691799 1.506621
H 3.977470 -1.134046 3.283528
H 3.509846 -3.073595 4.041133
H 4.509780 -2.282801 1.970408
C 8.329538 -5.430045 5.000527
C 8.455984 -4.177249 5.844603
H 8.180334 -5.156789 3.976814
H 7.495027 -6.006733 5.341004
H 9.223858 -6.010887 5.088016
H 7.561588 -3.596442 5.757227
H 9.290492 -3.600530 5.504220
H 8.605115 -4.450570 6.868334
N 0.002482 3.514957 6.207714
C -0.411744 4.877403 5.938737
C 0.214591 5.373561 4.630617
C -0.225125 6.804177 4.354959
C 0.378839 7.319725 3.068913
N 0.002482 6.541239 1.927905
H 0.040322 5.504675 6.756133
H -1.504477 5.009274 5.925799
H 1.317314 5.411020 4.742412
H -0.074136 4.719418 3.794109
H 0.071991 7.413614 5.212616
H -1.320875 6.838828 4.256719
H 1.490851 7.361795 3.120397
H 0.036205 8.360413 2.908787
N -3.372867 -4.739681 -3.195157
C -2.366639 -5.760313 -3.409651
C -1.012107 -5.112785 -3.718836
C 0.038933 -6.190430 -3.942433
C 1.386637 -5.579151 -4.249855
N 1.868807 -4.739681 -3.195157
H -2.671886 -6.302722 -4.346981
H -2.279940 -6.473103 -2.575363
H -1.081761 -4.553704 -4.674072
H -0.706771 -4.449138 -2.895822
H -0.309482 -6.829402 -4.758270
H 0.139151 -6.799945 -3.031406
H 1.368890 -4.989350 -5.194741
H 2.118221 -6.395263 -4.407388
N -6.283749 0.603856 -4.074273
C -6.249491 1.745968 -4.965675
C -5.638476 2.957278 -4.252208
C -5.605650 4.151963 -5.194360
C -5.007039 5.362549 -4.515668
N -3.662912 5.143278 -4.074273
H -7.323817 2.013763 -5.165874
H -5.729743 1.546003 -5.915148
H -6.292720 3.254577 -3.407531
H -4.622600 2.723334 -3.899677
H -6.630103 4.341116 -5.526000
H -4.986746 3.910361 -6.071917
H -5.618037 5.694816 -3.645455
H -5.004731 6.205977 -5.233090
N 5.718230 0.416179 -3.633206
C 6.098381 1.797550 -3.851128
C 4.859443 2.646328 -4.158135
C 5.266534 4.094999 -4.385352
C 4.062407 4.955991 -4.690718
N 3.097394 4.955601 -3.633206
H 6.718014 1.802828 -4.790275
H 6.674749 2.230428 -3.019239
H 4.407314 2.304862 -5.111488
H 4.134437 2.580317 -3.332896
H 5.991731 4.111376 -5.203331
H 5.746928 4.488077 -3.476378
H 3.557752 4.644135 -5.633618
H 4.402927 5.997350 -4.850992
