112

C -1.672818 -0.749207 4.820796
C -0.456956 -0.029167 5.281906
C 0.769540 -0.761407 4.820796
C -0.474870 1.364726 4.820796
H -1.870028 -0.914648 3.775385
H -0.436576 -0.015801 6.392648
H 0.918494 -0.899388 3.744493
H 0.310218 2.078465 5.038009
C -4.271311 -2.333234 0.437599
C -4.232091 -2.328651 -1.048281
C -4.278355 -0.915004 -1.550826
C -3.050832 -3.050887 -1.537039
H -3.513254 -1.843987 1.025080
H -5.131291 -2.849404 -1.441470
H -3.479221 -0.229645 -1.248634
H -2.816108 -3.175837 -2.586925
C 4.445252 -2.604082 -0.365059
C 4.456021 -2.608586 -1.848780
Cl 5.932997 -3.446986 -2.368515
C 3.236642 -3.287491 -2.359052
C 4.421890 -1.209394 -2.394670
H 5.248377 -2.155321 0.200518
H 3.078821 -3.382421 -3.423052
H 3.552138 -0.626943 -2.109397
C -0.059616 5.977136 -0.430252
C -0.061101 5.988714 -1.913972
Cl -0.073513 7.687012 -2.433708
C 1.136538 5.272153 -2.424244
C -1.255771 5.259560 -2.459862
H -0.849817 6.448281 0.135326
H 1.297660 5.182941 -3.488244
H -1.325312 4.215106 -2.174589
N -3.008920 -1.749986 4.737923
C -4.396218 -2.123548 4.760938
C -4.720122 -3.100146 3.634062
N -4.471925 -2.594653 2.348847
H -5.038839 -1.222245 4.683969
H -4.569564 -2.675306 5.709959
H -4.029939 -3.975359 3.807227
H -5.761392 -3.443874 3.740030
N 2.314241 -1.270454 4.588278
C 3.214070 -1.819139 3.562406
C 4.199531 -2.438705 2.754668
Cl 5.346834 -3.322190 3.704055
N 4.295831 -2.414525 1.352356
H 3.390649 -0.856773 3.129263
H 2.923025 -2.796321 3.886868
H 3.922959 -2.005528 1.816143
C 8.329538 -5.430045 5.000527
C 8.455984 -4.177249 5.844603
H 8.180334 -5.156789 3.976814
H 7.495027 -6.006733 5.341004
H 9.223858 -6.010887 5.088016
H 7.561588 -3.596442 5.757227
H 9.290492 -3.600530 5.504220
H 8.605115 -4.450570 6.868334
N 0.042050 3.095887 5.542426
C -0.372176 4.458333 5.273449
C 0.254159 4.954491 3.965330
C -0.185557 6.385107 3.689672
C 0.418408 6.900655 2.403626
N 0.042050 6.122169 1.262618
H 0.079890 5.085604 6.090846
H -1.464909 4.590204 5.260512
H 1.356882 4.991950 4.077125
H -0.034568 4.300348 3.128822
H 0.111559 6.994544 4.547329
H -1.281307 6.419757 3.591431
H 1.530419 6.942725 2.455109
H 0.075773 7.941343 2.243500
N -3.533247 -4.269044 -2.768819
C -2.527020 -5.289676 -2.983313
C -1.172488 -4.642148 -3.292498
C -0.121448 -5.719793 -3.516095
C 1.226256 -5.108514 -3.823517
N 1.708426 -4.269044 -2.768819
H -2.832266 -5.832085 -3.920643
H -2.440321 -6.002466 -2.149025
H -1.242142 -4.083067 -4.247734
H -0.867152 -3.978501 -2.469484
H -0.469863 -6.358765 -4.331931
H -0.021229 -6.329307 -2.605068
H 1.208509 -4.518713 -4.768403
H 1.957840 -5.924626 -3.981050
N -5.049192 -0.141773 -2.979837
C -5.014934 1.000339 -3.871239
C -4.403919 2.211648 -3.157772
C -4.371093 3.406333 -4.099924
C -3.772482 4.616919 -3.421232
N -2.428355 4.397649 -2.979837
H -6.089260 1.268133 -4.071439
H -4.495186 0.800374 -4.820712
H -5.058163 2.508947 -2.313095
H -3.388043 1.977704 -2.805242
H -5.395546 3.595486 -4.431564
H -3.752189 3.164731 -4.977482
H -4.383480 4.949186 -2.551020
H -3.770174 5.460347 -4.138654
N 5.166087 0.016481 -3.162171
C 5.546238 1.397852 -3.380093
C 4.307300 2.246630 -3.687101
C 4.714391 3.695301 -3.914317
C 3.510264 4.556293 -4.219684
N 2.545251 4.555903 -3.162171
H 6.165871 1.403130 -4.319241
H 6.122606 1.830730 -2.548205
H 3.855171 1.905164 -4.640454
H 3.582294 2.180619 -2.861862
H 5.439588 3.711678 -4.732296
H 5.194785 4.088379 -3.005344
H 3.005609 4.244437 -5.162584
H 3.850784 5.597652 -4.379958
