112

C -2.393752 -1.382033 8.927153
C -1.177889 -0.661994 9.388263
C 0.048606 -1.394234 8.927153
C -1.195803 0.731899 8.927153
H -2.590961 -1.547474 7.881742
H -1.157509 -0.648628 10.499005
H 0.197560 -1.532214 7.850850
H -0.410715 1.445638 9.144366
C -8.152340 -4.866120 -0.929524
C -8.113119 -4.861536 -2.415405
C -8.159384 -3.447890 -2.917950
C -6.931860 -5.583772 -2.904162
H -7.394283 -4.376873 -0.342043
H -9.012320 -5.382290 -2.808593
H -7.360249 -2.762530 -2.615758
H -6.697137 -5.708722 -3.954048
C 4.530808 -2.415636 -0.292335
C 4.541577 -2.420139 -1.776055
Cl 6.018553 -3.258539 -2.295791
C 3.322198 -3.099044 -2.286327
C 4.507446 -1.020948 -2.321946
H 5.333933 -1.966874 0.273243
H 3.164377 -3.193974 -3.350327
H 3.637694 -0.438497 -2.036673
C 0.044912 10.006450 -2.036154
C 0.043428 10.018028 -3.519874
Cl 0.031016 11.716327 -4.039610
C 1.241067 9.301467 -4.030146
C -1.151242 9.288874 -4.065764
H -0.745289 10.477596 -1.470576
H 1.402189 9.212255 -5.094146
H -1.220783 8.244420 -3.780491
N -4.508827 -2.603173 5.473250
C -5.896125 -2.976734 5.496264
C -6.220029 -3.953332 4.369389
N -5.971832 -3.447839 3.084173
H -6.538746 -2.075431 5.419295
H -6.069471 -3.528492 6.445285
H -5.529846 -4.828545 4.542553
H -7.261299 -4.297060 4.475356
N 2.901062 -1.547727 4.742543
C 3.800891 -2.096412 3.716671
C 4.786353 -2.715979 2.908933
Cl 5.933655 -3.599464 3.858320
N 4.882652 -2.691799 1.506621
H 3.977470 -1.134046 3.283528
H 3.509846 -3.073595 4.041133
H 4.509780 -2.282801 1.970408
C 8.329538 -5.430045 5.000527
C 8.455984 -4.177249 5.844603
H 8.180334 -5.156789 3.976814
H 7.495027 -6.006733 5.341004
H 9.223858 -6.010887 5.088016
H 7.561588 -3.596442 5.757227
H 9.290492 -3.600530 5.504220
H 8.605115 -4.450570 6.868334
N -0.008406 4.279498 6.807215
C -0.422632 5.641944 6.538238
C 0.203703 6.138102 5.230118
C -0.236013 7.568718 4.954460
C 0.367951 8.084266 3.668414
N -0.008406 7.305780 2.527406
H 0.029434 6.269215 7.355635
H -1.515365 5.773814 6.525300
H 1.306426 6.175561 5.341914
H -0.085024 5.483959 4.393610
H 0.061103 8.178155 5.812117
H -1.331763 7.603368 4.856220
H 1.479963 8.126336 3.719898
H 0.025317 9.124954 3.508288
N -2.597893 -4.555880 -3.258521
C -1.591666 -5.576512 -3.473015
C -0.237134 -4.928984 -3.782200
C 0.813907 -6.006629 -4.005797
C 2.161611 -5.395349 -4.313219
N 2.643780 -4.555880 -3.258521
H -1.896912 -6.118921 -4.410345
H -1.504967 -6.289302 -2.638727
H -0.306787 -4.369902 -4.737436
H 0.068203 -4.265336 -2.959186
H 0.465492 -6.645600 -4.821634
H 0.914125 -6.616143 -3.094771
H 2.143864 -4.805549 -5.258106
H 2.893195 -6.211461 -4.470752
N -6.545629 0.759400 -4.296108
C -6.511371 1.901512 -5.187509
C -5.900356 3.112822 -4.474042
C -5.867530 4.307507 -5.416194
C -5.268919 5.518093 -4.737502
N -3.924793 5.298822 -4.296108
H -7.585697 2.169307 -5.387709
H -5.991623 1.701547 -6.136983
H -6.554600 3.410121 -3.629365
H -4.884481 2.878878 -4.121512
H -6.891983 4.496659 -5.747834
H -5.248627 4.065905 -6.293752
H -5.879917 5.850360 -3.867290
H -5.266612 6.361521 -5.454924
N 5.847776 0.235532 -3.651965
C 6.227926 1.616903 -3.869887
C 4.988988 2.465680 -4.176895
C 5.396080 3.914352 -4.404111
C 4.191953 4.775343 -4.709477
N 3.226939 4.774954 -3.651965
H 6.847560 1.622180 -4.809034
H 6.804295 2.049781 -3.037998
H 4.536860 2.124215 -5.130247
H 4.263982 2.399670 -3.351655
H 6.121276 3.930729 -5.222090
H 5.876474 4.307429 -3.495137
H 3.687298 4.463488 -5.652377
H 4.532472 5.816702 -4.869752
