112

C -1.673936 -0.749473 4.827005
C -0.458074 -0.029433 5.288114
C 0.768422 -0.761673 4.827005
C -0.475988 1.364460 4.827005
H -1.871146 -0.914914 3.781594
H -0.437694 -0.016067 6.398857
H 0.917376 -0.899654 3.750702
H 0.309100 2.078198 5.044218
C -4.181410 -2.431735 0.623808
C -4.142189 -2.427151 -0.862072
C -4.188454 -1.013505 -1.364618
C -2.960930 -3.149387 -1.350830
H -3.423353 -1.942488 1.211289
H -5.041390 -2.947905 -1.255261
H -3.389319 -0.328145 -1.062425
H -2.726207 -3.274337 -2.400716
C 4.532078 -2.534239 -0.255138
C 4.542847 -2.538743 -1.738858
Cl 6.019823 -3.377143 -2.258594
C 3.323467 -3.217648 -2.249130
C 4.508716 -1.139551 -2.284748
H 5.335202 -2.085478 0.310440
H 3.165647 -3.312578 -3.313130
H 3.638963 -0.557100 -1.999475
C -0.059616 5.977136 -0.430252
C -0.061101 5.988714 -1.913972
Cl -0.073513 7.687012 -2.433708
C 1.136538 5.272153 -2.424244
C -1.255771 5.259560 -2.459862
H -0.849817 6.448281 0.135326
H 1.297660 5.182941 -3.488244
H -1.325312 4.215106 -2.174589
N -3.008920 -1.749986 4.737923
C -4.396218 -2.123548 4.760938
C -4.720122 -3.100146 3.634062
N -4.471925 -2.594653 2.348847
H -5.038839 -1.222245 4.683969
H -4.569564 -2.675306 5.709959
H -4.029939 -3.975359 3.807227
H -5.761392 -3.443874 3.740030
N 2.306123 -1.260155 4.681588
C 3.205951 -1.808840 3.655716
C 4.191413 -2.428406 2.847977
Cl 5.338716 -3.311891 3.797364
N 4.287713 -2.404226 1.445665
H 3.382530 -0.846474 3.222572
H 2.914907 -2.786022 3.980177
H 3.914841 -1.995229 1.909453
C 8.329538 -5.430045 5.000527
C 8.455984 -4.177249 5.844603
H 8.180334 -5.156789 3.976814
H 7.495027 -6.006733 5.341004
H 9.223858 -6.010887 5.088016
H 7.561588 -3.596442 5.757227
H 9.290492 -3.600530 5.504220
H 8.605115 -4.450570 6.868334
N 0.042050 3.095887 5.542426
C -0.372176 4.458333 5.273449
C 0.254159 4.954491 3.965330
C -0.185557 6.385107 3.689672
C 0.418408 6.900655 2.403626
N 0.042050 6.122169 1.262618
H 0.079890 5.085604 6.090846
H -1.464909 4.590204 5.260512
H 1.356882 4.991950 4.077125
H -0.034568 4.300348 3.128822
H 0.111559 6.994544 4.547329
H -1.281307 6.419757 3.591431
H 1.530419 6.942725 2.455109
H 0.075773 7.941343 2.243500
N -3.490238 -4.115236 -2.650038
C -2.484011 -5.135868 -2.864533
C -1.129479 -4.488340 -3.173718
C -0.078439 -5.565985 -3.397314
C 1.269266 -4.954706 -3.704736
N 1.751435 -4.115236 -2.650038
H -2.789257 -5.678277 -3.801863
H -2.397312 -5.848658 -2.030244
H -1.199132 -3.929259 -4.128954
H -0.824143 -3.824693 -2.350703
H -0.426854 -6.204957 -4.213151
H 0.021780 -6.175500 -2.486288
H 1.251518 -4.364905 -4.649623
H 2.000849 -5.770818 -3.862270
N -4.995392 -0.170597 -2.939170
C -4.961134 0.971515 -3.830571
C -4.350120 2.182824 -3.117104
C -4.317294 3.377509 -4.059256
C -3.718682 4.588095 -3.380564
N -2.374556 4.368825 -2.939170
H -6.035461 1.239309 -4.030771
H -4.441386 0.771550 -4.780045
H -5.004363 2.480123 -2.272427
H -3.334244 1.948880 -2.764574
H -5.341746 3.566662 -4.390896
H -3.698390 3.135907 -4.936814
H -4.329680 4.920362 -2.510352
H -3.716375 5.431523 -4.097986
N 5.083928 0.080763 -3.124432
C 5.464078 1.462134 -3.342355
C 4.225140 2.310911 -3.649362
C 4.632232 3.759583 -3.876579
C 3.428105 4.620574 -4.181945
N 2.463091 4.620185 -3.124432
H 6.083712 1.467411 -4.281502
H 6.040447 1.895012 -2.510466
H 3.773011 1.969446 -4.602715
H 3.500134 2.244901 -2.824123
H 5.357428 3.775960 -4.694557
H 5.112625 4.152660 -2.967605
H 2.923450 4.308719 -5.124845
H 3.768624 5.661933 -4.342219
