112

C -1.847159 -0.523758 7.155227
C -0.631297 0.196281 7.616336
C 0.595199 -0.535959 7.155227
C -0.649211 1.590174 7.155227
H -2.044369 -0.689200 6.109816
H -0.610917 0.209647 8.727079
H 0.744153 -0.673940 6.078924
H 0.135877 2.303913 7.372440
C -7.623604 -4.522211 0.043729
C -7.584383 -4.517628 -1.442152
C -7.630648 -3.103981 -1.944697
C -6.403125 -5.239863 -1.930910
H -6.865547 -4.032964 0.631210
H -8.483584 -5.038381 -1.835341
H -6.831513 -2.418621 -1.642505
H -6.168401 -5.364813 -2.980795
C 4.504077 -2.394247 -0.438796
C 4.514846 -2.398750 -1.922516
Cl 5.991822 -3.237150 -2.442252
C 3.295467 -3.077655 -2.432788
C 4.480715 -0.999559 -2.468406
H 5.307202 -1.945485 0.126782
H 3.137646 -3.172585 -3.496788
H 3.610962 -0.417107 -2.183133
C -0.037748 6.452263 -0.785354
C -0.039232 6.463841 -2.269075
Cl -0.051644 8.162139 -2.788810
C 1.158407 5.747280 -2.779347
C -1.233902 5.734687 -2.814965
H -0.827949 6.923408 -0.219777
H 1.319529 5.658068 -3.843347
H -1.303443 4.690233 -2.529692
N -3.626420 -2.116573 4.776019
C -5.013718 -2.490134 4.799033
C -5.337622 -3.466732 3.672158
N -5.089425 -2.961239 2.386942
H -5.656339 -1.588831 4.722064
H -5.187064 -3.041892 5.748055
H -4.647439 -4.341945 3.845323
H -6.378892 -3.810460 3.778126
N 2.778052 -1.476745 4.693824
C 3.677880 -2.025430 3.667952
C 4.663342 -2.644996 2.860213
Cl 5.810644 -3.528482 3.809600
N 4.759641 -2.620816 1.457901
H 3.854459 -1.063064 3.234808
H 3.386836 -3.002613 3.992413
H 4.386769 -2.211819 1.921689
C 8.329538 -5.430045 5.000527
C 8.455984 -4.177249 5.844603
H 8.180334 -5.156789 3.976814
H 7.495027 -6.006733 5.341004
H 9.223858 -6.010887 5.088016
H 7.561588 -3.596442 5.757227
H 9.290492 -3.600530 5.504220
H 8.605115 -4.450570 6.868334
N 0.036769 2.319745 5.345199
C -0.377458 3.682191 5.076222
C 0.248877 4.178349 3.768102
C -0.190838 5.608965 3.492445
C 0.413126 6.124513 2.206399
N 0.036769 5.346027 1.065391
H 0.074608 4.309463 5.893619
H -1.470191 3.814062 5.063284
H 1.351600 4.215808 3.879898
H -0.039850 3.524206 2.931595
H 0.106277 6.218402 4.350102
H -1.286589 5.643616 3.394204
H 1.525137 6.166583 2.257882
H 0.070491 7.165201 2.046273
N -3.372867 -4.739681 -3.195157
C -2.366639 -5.760313 -3.409651
C -1.012107 -5.112785 -3.718836
C 0.038933 -6.190430 -3.942433
C 1.386637 -5.579151 -4.249855
N 1.868807 -4.739681 -3.195157
H -2.671886 -6.302722 -4.346981
H -2.279940 -6.473103 -2.575363
H -1.081761 -4.553704 -4.674072
H -0.706771 -4.449138 -2.895822
H -0.309482 -6.829402 -4.758270
H 0.139151 -6.799945 -3.031406
H 1.368890 -4.989350 -5.194741
H 2.118221 -6.395263 -4.407388
N -5.472912 0.119591 -3.386405
C -5.438654 1.261703 -4.277807
C -4.827639 2.473012 -3.564339
C -4.794813 3.667697 -4.506492
C -4.196202 4.878283 -3.827800
N -2.852075 4.659013 -3.386405
H -6.512980 1.529497 -4.478006
H -4.918906 1.061738 -5.227280
H -5.481883 2.770311 -2.719663
H -3.811763 2.239068 -3.211809
H -5.819266 3.856850 -4.838132
H -4.175909 3.426095 -5.384049
H -4.807200 5.210550 -2.957587
H -4.193894 5.721711 -4.545222
N 5.718230 0.416179 -3.633206
C 6.098381 1.797550 -3.851128
C 4.859443 2.646328 -4.158135
C 5.266534 4.094999 -4.385352
C 4.062407 4.955991 -4.690718
N 3.097394 4.955601 -3.633206
H 6.718014 1.802828 -4.790275
H 6.674749 2.230428 -3.019239
H 4.407314 2.304862 -5.111488
H 4.134437 2.580317 -3.332896
H 5.991731 4.111376 -5.203331
H 5.746928 4.488077 -3.476378
H 3.557752 4.644135 -5.633618
H 4.402927 5.997350 -4.850992
