112

C -1.648936 -0.661824 4.863605
C -0.433074 0.058216 5.324714
C 0.793422 -0.674024 4.863605
C -0.450987 1.452109 4.863605
H -1.846145 -0.827265 3.818193
H -0.412693 0.071582 6.435456
H 0.942376 -0.812005 3.787302
H 0.334101 2.165847 5.080818
C -4.818931 -2.838710 1.221040
C -4.779710 -2.834127 -0.264841
C -4.825975 -1.420480 -0.767386
C -3.598452 -3.556362 -0.753598
H -4.060874 -2.349463 1.808521
H -5.678911 -3.354880 -0.658029
H -4.026841 -0.735120 -0.465194
H -3.363728 -3.681312 -1.803484
C 4.328687 -2.657347 -0.380186
C 4.339456 -2.661851 -1.863907
Cl 5.816432 -3.500251 -2.383643
C 3.120077 -3.340756 -2.374179
C 4.305325 -1.262659 -2.409797
H 5.131812 -2.208586 0.185391
H 2.962256 -3.435685 -3.438179
H 3.435572 -0.680208 -2.124524
C -0.103409 5.940967 -0.543317
C -0.104893 5.952545 -2.027038
Cl -0.117305 7.650844 -2.546773
C 1.092746 5.235984 -2.537310
C -1.299563 5.223391 -2.572928
H -0.893610 6.412113 0.022260
H 1.253868 5.146773 -3.601310
H -1.369104 4.178938 -2.287655
N -3.398940 -1.972465 5.057636
C -4.786238 -2.346026 5.080650
C -5.110142 -3.322625 3.953775
N -4.861945 -2.817131 2.668559
H -5.428859 -1.444724 5.003681
H -4.959584 -2.897785 6.029671
H -4.419959 -4.197838 4.126939
H -6.151412 -3.666353 4.059742
N 2.306123 -1.260155 4.681588
C 3.205951 -1.808840 3.655716
C 4.191413 -2.428406 2.847977
Cl 5.338716 -3.311891 3.797364
N 4.287713 -2.404226 1.445665
H 3.382530 -0.846474 3.222572
H 2.914907 -2.786022 3.980177
H 3.914841 -1.995229 1.909453
C 8.329538 -5.430045 5.000527
C 8.455984 -4.177249 5.844603
H 8.180334 -5.156789 3.976814
H 7.495027 -6.006733 5.341004
H 9.223858 -6.010887 5.088016
H 7.561588 -3.596442 5.757227
H 9.290492 -3.600530 5.504220
H 8.605115 -4.450570 6.868334
N 0.038788 3.091824 5.501925
C -0.375438 4.454269 5.232948
C 0.250897 4.950427 3.924829
C -0.188819 6.381043 3.649171
C 0.415145 6.896591 2.363125
N 0.038788 6.118105 1.222117
H 0.076628 5.081541 6.050345
H -1.468171 4.586140 5.220011
H 1.353620 4.987886 4.036624
H -0.037830 4.296284 3.088321
H 0.108297 6.990481 4.506828
H -1.284569 6.415694 3.550930
H 1.527157 6.938661 2.414608
H 0.072511 7.937279 2.202999
N -3.360519 -4.022557 -2.583472
C -2.354291 -5.043189 -2.797966
C -0.999759 -4.395661 -3.107151
C 0.051281 -5.473306 -3.330748
C 1.398985 -4.862026 -3.638170
N 1.881155 -4.022557 -2.583472
H -2.659538 -5.585598 -3.735296
H -2.267592 -5.755979 -1.963678
H -1.069413 -3.836579 -4.062387
H -0.694423 -3.732013 -2.284137
H -0.297134 -6.112277 -4.146584
H 0.151500 -6.082820 -2.419721
H 1.381238 -4.272225 -4.583056
H 2.130569 -5.678138 -3.795703
N -5.038609 -0.136150 -3.037442
C -5.004350 1.005962 -3.928843
C -4.393336 2.217271 -3.215376
C -4.360510 3.411956 -4.157528
C -3.761898 4.622542 -3.478836
N -2.417772 4.403272 -3.037442
H -6.078677 1.273756 -4.129043
H -4.484603 0.805997 -4.878316
H -5.047580 2.514570 -2.370699
H -3.377460 1.983327 -2.862846
H -5.384963 3.601109 -4.489168
H -3.741606 3.170354 -5.035086
H -4.372897 4.954809 -2.608624
H -3.759591 5.465970 -4.196258
N 5.202850 0.309712 -3.283806
C 5.583001 1.691083 -3.501728
C 4.344062 2.539861 -3.808736
C 4.751154 3.988532 -4.035952
C 3.547027 4.849524 -4.341319
N 2.582013 4.849134 -3.283806
H 6.202634 1.696361 -4.440876
H 6.159369 2.123961 -2.669840
H 3.891934 2.198395 -4.762089
H 3.619056 2.473850 -2.983497
H 5.476350 4.004909 -4.853931
H 5.231548 4.381610 -3.126979
H 3.042372 4.537668 -5.284219
H 3.887547 5.890883 -4.501593
