112

C -1.652426 -0.744502 4.698050
C -0.436563 -0.024463 5.159159
C 0.789932 -0.756703 4.698050
C -0.454477 1.369430 4.698050
H -1.849635 -0.909944 3.652638
H -0.416183 -0.011097 6.269901
H 0.938886 -0.894684 3.621747
H 0.330611 2.083169 4.915263
C -4.474659 -2.188791 0.116910
C -4.435438 -2.184208 -1.368970
C -4.481703 -0.770561 -1.871516
C -3.254180 -2.906443 -1.857728
H -3.716602 -1.699544 0.704391
H -5.334639 -2.704961 -1.762159
H -3.682569 -0.085201 -1.569323
H -3.019456 -3.031393 -2.907614
C 4.429892 -2.629696 -0.348939
C 4.440661 -2.634200 -1.832659
Cl 5.917637 -3.472600 -2.352395
C 3.221282 -3.313105 -2.342931
C 4.406531 -1.235008 -2.378550
H 5.233017 -2.180935 0.216638
H 3.063462 -3.408035 -3.406932
H 3.536778 -0.652557 -2.093277
C -0.050305 6.010202 -0.512248
C -0.051789 6.021780 -1.995969
Cl -0.064201 7.720079 -2.515704
C 1.145850 5.305219 -2.506241
C -1.246459 5.292626 -2.541859
H -0.840506 6.481348 0.053329
H 1.306972 5.216008 -3.570241
H -1.316000 4.248173 -2.256586
N -2.996548 -1.681065 4.260964
C -4.383846 -2.054627 4.283978
C -4.707749 -3.031225 3.157103
N -4.459553 -2.525732 1.871887
H -5.026467 -1.153324 4.207009
H -4.557192 -2.606385 5.233000
H -4.017567 -3.906438 3.330268
H -5.749020 -3.374953 3.263070
N 2.230576 -1.242882 4.600872
C 3.130405 -1.791568 3.575000
C 4.115867 -2.411134 2.767261
Cl 5.263169 -3.294619 3.716649
N 4.212166 -2.386954 1.364949
H 3.306984 -0.829201 3.141857
H 2.839360 -2.768750 3.899462
H 3.839294 -1.977956 1.828737
C 8.329538 -5.430045 5.000527
C 8.455984 -4.177249 5.844603
H 8.180334 -5.156789 3.976814
H 7.495027 -6.006733 5.341004
H 9.223858 -6.010887 5.088016
H 7.561588 -3.596442 5.757227
H 9.290492 -3.600530 5.504220
H 8.605115 -4.450570 6.868334
N 0.042050 3.095887 5.542426
C -0.372176 4.458333 5.273449
C 0.254159 4.954491 3.965330
C -0.185557 6.385107 3.689672
C 0.418408 6.900655 2.403626
N 0.042050 6.122169 1.262618
H 0.079890 5.085604 6.090846
H -1.464909 4.590204 5.260512
H 1.356882 4.991950 4.077125
H -0.034568 4.300348 3.128822
H 0.111559 6.994544 4.547329
H -1.281307 6.419757 3.591431
H 1.530419 6.942725 2.455109
H 0.075773 7.941343 2.243500
N -3.533247 -4.269044 -2.768819
C -2.527020 -5.289676 -2.983313
C -1.172488 -4.642148 -3.292498
C -0.121448 -5.719793 -3.516095
C 1.226256 -5.108514 -3.823517
N 1.708426 -4.269044 -2.768819
H -2.832266 -5.832085 -3.920643
H -2.440321 -6.002466 -2.149025
H -1.242142 -4.083067 -4.247734
H -0.867152 -3.978501 -2.469484
H -0.469863 -6.358765 -4.331931
H -0.021229 -6.329307 -2.605068
H 1.208509 -4.518713 -4.768403
H 1.957840 -5.924626 -3.981050
N -5.180125 -0.207847 -3.062609
C -5.145867 0.934265 -3.954011
C -4.534852 2.145574 -3.240544
C -4.502026 3.340259 -4.182696
C -3.903415 4.550845 -3.504004
N -2.559288 4.331575 -3.062609
H -6.220193 1.202059 -4.154210
H -4.626119 0.734300 -4.903484
H -5.189096 2.442873 -2.395867
H -3.518977 1.911630 -2.888013
H -5.526479 3.529412 -4.514336
H -3.883122 3.098657 -5.060253
H -4.514413 4.883112 -2.633791
H -3.901107 5.394273 -4.221426
N 5.139483 -0.012721 -3.147791
C 5.519634 1.368650 -3.365713
C 4.280696 2.217428 -3.672720
C 4.687788 3.666099 -3.899937
C 3.483660 4.527091 -4.205303
N 2.518647 4.526701 -3.147791
H 6.139267 1.373927 -4.304860
H 6.096003 1.801528 -2.533824
H 3.828567 1.875962 -4.626073
H 3.555690 2.151417 -2.847481
H 5.412984 3.682476 -4.717915
H 5.168181 4.059177 -2.990963
H 2.979005 4.215235 -5.148203
H 3.824180 5.568450 -4.365577
