112

C -1.648936 -0.661824 4.863605
C -0.433074 0.058216 5.324714
C 0.793422 -0.674024 4.863605
C -0.450987 1.452109 4.863605
H -1.846145 -0.827265 3.818193
H -0.412693 0.071582 6.435456
H 0.942376 -0.812005 3.787302
H 0.334101 2.165847 5.080818
C -4.128248 -2.274399 1.005090
C -4.089027 -2.269816 -0.480791
C -4.135292 -0.856169 -0.983336
C -2.907769 -2.992051 -0.969549
H -3.370191 -1.785152 1.592571
H -4.988228 -2.790569 -0.873980
H -3.336158 -0.170809 -0.681144
H -2.673045 -3.117001 -2.019434
C 4.565941 -2.502609 -0.326983
C 4.576710 -2.507112 -1.810704
Cl 6.053686 -3.345512 -2.330439
C 3.357331 -3.186017 -2.320976
C 4.542580 -1.107921 -2.356594
H 5.369066 -2.053848 0.238594
H 3.199511 -3.280947 -3.384976
H 3.672827 -0.525470 -2.071321
C -0.059616 5.977136 -0.430252
C -0.061101 5.988714 -1.913972
Cl -0.073513 7.687012 -2.433708
C 1.136538 5.272153 -2.424244
C -1.255771 5.259560 -2.459862
H -0.849817 6.448281 0.135326
H 1.297660 5.182941 -3.488244
H -1.325312 4.215106 -2.174589
N -3.008920 -1.749986 4.737923
C -4.396218 -2.123548 4.760938
C -4.720122 -3.100146 3.634062
N -4.471925 -2.594653 2.348847
H -5.038839 -1.222245 4.683969
H -4.569564 -2.675306 5.709959
H -4.029939 -3.975359 3.807227
H -5.761392 -3.443874 3.740030
N 2.306123 -1.260155 4.681588
C 3.205951 -1.808840 3.655716
C 4.191413 -2.428406 2.847977
Cl 5.338716 -3.311891 3.797364
N 4.287713 -2.404226 1.445665
H 3.382530 -0.846474 3.222572
H 2.914907 -2.786022 3.980177
H 3.914841 -1.995229 1.909453
C 8.329538 -5.430045 5.000527
C 8.455984 -4.177249 5.844603
H 8.180334 -5.156789 3.976814
H 7.495027 -6.006733 5.341004
H 9.223858 -6.010887 5.088016
H 7.561588 -3.596442 5.757227
H 9.290492 -3.600530 5.504220
H 8.605115 -4.450570 6.868334
N 0.042050 3.095887 5.542426
C -0.372176 4.458333 5.273449
C 0.254159 4.954491 3.965330
C -0.185557 6.385107 3.689672
C 0.418408 6.900655 2.403626
N 0.042050 6.122169 1.262618
H 0.079890 5.085604 6.090846
H -1.464909 4.590204 5.260512
H 1.356882 4.991950 4.077125
H -0.034568 4.300348 3.128822
H 0.111559 6.994544 4.547329
H -1.281307 6.419757 3.591431
H 1.530419 6.942725 2.455109
H 0.075773 7.941343 2.243500
N -3.362072 -4.042778 -2.622068
C -2.355845 -5.063410 -2.836562
C -1.001313 -4.415882 -3.145747
C 0.049727 -5.493527 -3.369344
C 1.397431 -4.882247 -3.676766
N 1.879601 -4.042778 -2.622068
H -2.661092 -5.605819 -3.773892
H -2.269146 -5.776200 -2.002273
H -1.070967 -3.856800 -4.100983
H -0.695977 -3.752234 -2.322733
H -0.298688 -6.132498 -4.185180
H 0.149946 -6.103041 -2.458317
H 1.379684 -4.292446 -4.621652
H 2.129015 -5.698359 -3.834299
N -5.038609 -0.136150 -3.037442
C -5.004350 1.005962 -3.928843
C -4.393336 2.217271 -3.215376
C -4.360510 3.411956 -4.157528
C -3.761898 4.622542 -3.478836
N -2.417772 4.403272 -3.037442
H -6.078677 1.273756 -4.129043
H -4.484603 0.805997 -4.878316
H -5.047580 2.514570 -2.370699
H -3.377460 1.983327 -2.862846
H -5.384963 3.601109 -4.489168
H -3.741606 3.170354 -5.035086
H -4.372897 4.954809 -2.608624
H -3.759591 5.465970 -4.196258
N 5.083928 0.080763 -3.124432
C 5.464078 1.462134 -3.342355
C 4.225140 2.310911 -3.649362
C 4.632232 3.759583 -3.876579
C 3.428105 4.620574 -4.181945
N 2.463091 4.620185 -3.124432
H 6.083712 1.467411 -4.281502
H 6.040447 1.895012 -2.510466
H 3.773011 1.969446 -4.602715
H 3.500134 2.244901 -2.824123
H 5.357428 3.775960 -4.694557
H 5.112625 4.152660 -2.967605
H 2.923450 4.308719 -5.124845
H 3.768624 5.661933 -4.342219
