112

C -1.807225 -1.043402 9.884947
C -0.591363 -0.323363 10.346056
C 0.635133 -1.055602 9.884947
C -0.609277 1.070530 9.884947
H -2.004435 -1.208843 8.839536
H -0.570983 -0.309997 11.456799
H 0.784086 -1.193583 8.808644
H 0.175811 1.784269 10.102160
C -8.554886 -4.939166 -1.133936
C -8.515665 -4.934582 -2.619817
C -8.561930 -3.520936 -3.122362
C -7.334406 -5.656818 -3.108574
H -7.796829 -4.449919 -0.546455
H -9.414865 -5.455336 -3.013005
H -7.762795 -2.835576 -2.820170
H -7.099683 -5.781768 -4.158460
C 8.504344 -4.874219 -1.958658
C 8.515113 -4.878722 -3.442378
Cl 9.992089 -5.717122 -3.962114
C 7.295734 -5.557627 -3.952650
C 8.480983 -3.479531 -3.988269
H 9.307469 -4.425458 -1.393081
H 7.137914 -5.652557 -5.016651
H 7.611230 -2.897080 -3.702996
C 0.044912 10.006450 -2.036154
C 0.043428 10.018028 -3.519874
Cl 0.031016 11.716327 -4.039610
C 1.241067 9.301467 -4.030146
C -1.151242 9.288874 -4.065764
H -0.745289 10.477596 -1.470576
H 1.402189 9.212255 -5.094146
H -1.220783 8.244420 -3.780491
N -4.508827 -2.603173 5.473250
C -5.896125 -2.976734 5.496264
C -6.220029 -3.953332 4.369389
N -5.971832 -3.447839 3.084173
H -6.538746 -2.075431 5.419295
H -6.069471 -3.528492 6.445285
H -5.529846 -4.828545 4.542553
H -7.261299 -4.297060 4.475356
N 4.260368 -2.461354 5.906762
C 5.160196 -3.010039 4.880890
C 6.145658 -3.629606 4.073152
Cl 7.292960 -4.513091 5.022539
N 6.241957 -3.605425 2.670840
H 5.336775 -2.047673 4.447747
H 4.869152 -3.987222 5.205352
H 5.869085 -3.196428 3.134628
C 8.329538 -5.430045 5.000527
C 8.455984 -4.177249 5.844603
H 8.180334 -5.156789 3.976814
H 7.495027 -6.006733 5.341004
H 9.223858 -6.010887 5.088016
H 7.561588 -3.596442 5.757227
H 9.290492 -3.600530 5.504220
H 8.605115 -4.450570 6.868334
N -0.008406 4.279498 6.807215
C -0.422632 5.641944 6.538238
C 0.203703 6.138102 5.230118
C -0.236013 7.568718 4.954460
C 0.367951 8.084266 3.668414
N -0.008406 7.305780 2.527406
H 0.029434 6.269215 7.355635
H -1.515365 5.773814 6.525300
H 1.306426 6.175561 5.341914
H -0.085024 5.483959 4.393610
H 0.061103 8.178155 5.812117
H -1.331763 7.603368 4.856220
H 1.479963 8.126336 3.719898
H 0.025317 9.124954 3.508288
N -2.611813 -6.052748 -4.271405
C -1.605585 -7.073380 -4.485899
C -0.251053 -6.425852 -4.795084
C 0.799987 -7.503497 -5.018681
C 2.147691 -6.892218 -5.326103
N 2.629861 -6.052748 -4.271405
H -1.910832 -7.615789 -5.423229
H -1.518886 -7.786170 -3.651611
H -0.320707 -5.866771 -5.750320
H 0.054283 -5.762205 -3.972070
H 0.451572 -8.142469 -5.834518
H 0.900205 -8.113011 -4.107654
H 2.129944 -6.302417 -6.270989
H 2.879275 -7.708330 -5.483636
N -6.545629 0.759400 -4.296108
C -6.511371 1.901512 -5.187509
C -5.900356 3.112822 -4.474042
C -5.867530 4.307507 -5.416194
C -5.268919 5.518093 -4.737502
N -3.924793 5.298822 -4.296108
H -7.585697 2.169307 -5.387709
H -5.991623 1.701547 -6.136983
H -6.554600 3.410121 -3.629365
H -4.884481 2.878878 -4.121512
H -6.891983 4.496659 -5.747834
H -5.248627 4.065905 -6.293752
H -5.879917 5.850360 -3.867290
H -5.266612 6.361521 -5.454924
N 6.040425 0.416129 -3.843132
C 6.420576 1.797500 -4.061054
C 5.181638 2.646278 -4.368062
C 5.588730 4.094949 -4.595278
C 4.384602 4.955941 -4.900645
N 3.419589 4.955551 -3.843132
H 7.040209 1.802777 -5.000202
H 6.996945 2.230378 -3.229166
H 4.729509 2.304812 -5.321415
H 4.456632 2.580267 -3.542823
H 6.313926 4.111326 -5.413257
H 6.069123 4.488027 -3.686305
H 3.879947 4.644085 -5.843545
H 4.725122 5.997300 -5.060919
