
     RDKit          3D

  0  0  0  0  0  0  0  0  0  0999 V3000
M  V30 BEGIN CTAB
M  V30 COUNTS 93 92 0 0 0
M  V30 BEGIN ATOM
M  V30 1 N 0.6711 0.0001 0.0001 0
M  V30 2 C 1.4538 1.1288 0.4222 0
M  V30 3 C 2.8178 1.1372 -0.2620 0
M  V30 4 N 3.5972 0.0001 0.0001 0
M  V30 5 H 0.4023 0.0944 -1.0032 0
M  V30 6 H 1.1717 -0.9144 0.1458 0
M  V30 7 H 1.5778 1.1205 1.5248 0
M  V30 8 H 0.9249 2.0415 0.0723 0
M  V30 9 H 2.5840 1.1568 -1.3653 0
M  V30 10 H 3.3511 2.0638 0.0035 0
M  V30 11 N 11.2309 0.0003 0.0001 0
M  V30 12 C 12.0136 1.1289 0.4221 0
M  V30 13 C 13.3776 1.1373 -0.2620 0
M  V30 14 N 14.1569 0.0003 0.0001 0
M  V30 15 H 12.1376 1.1206 1.5248 0
M  V30 16 H 11.4847 2.0416 0.0722 0
M  V30 17 H 13.1437 1.1569 -1.3653 0
M  V30 18 H 13.9109 2.0639 0.0035 0
M  V30 19 N 22.4162 -0.0001 -0.0000 0
M  V30 20 C 23.1989 1.1286 0.4220 0
M  V30 21 C 24.5628 1.1369 -0.2621 0
M  V30 22 N 25.3422 -0.0001 -0.0000 0
M  V30 23 H 23.3229 1.1203 1.5247 0
M  V30 24 H 22.6700 2.0413 0.0721 0
M  V30 25 H 24.3290 1.1565 -1.3654 0
M  V30 26 H 25.0962 2.0636 0.0034 0
M  V30 27 N 33.9348 -0.0101 -0.0029 0
M  V30 28 C 34.7175 1.1185 0.4192 0
M  V30 29 C 36.0815 1.1269 -0.2650 0
M  V30 30 N 36.8608 -0.0101 -0.0029 0
M  V30 31 H 34.8415 1.1102 1.5218 0
M  V30 32 H 34.1886 2.0312 0.0693 0
M  V30 33 H 35.8477 1.1465 -1.3683 0
M  V30 34 H 36.6148 2.0535 0.0005 0
M  V30 35 N 45.2249 -0.0002 -0.0000 0
M  V30 36 C 46.0076 1.1285 0.4220 0
M  V30 37 C 47.3715 1.1369 -0.2621 0
M  V30 38 N 48.1509 -0.0002 -0.0000 0
M  V30 39 H 46.1315 1.1202 1.5247 0
M  V30 40 H 45.4786 2.0412 0.0721 0
M  V30 41 H 47.1377 1.1565 -1.3654 0
M  V30 42 H 47.9049 2.0635 0.0034 0
M  V30 43 N 55.3602 -0.0008 0.0010 0
M  V30 44 C 56.1429 1.1278 0.4231 0
M  V30 45 C 57.5068 1.1362 -0.2611 0
M  V30 46 N 58.2862 -0.0008 0.0010 0
M  V30 47 H 56.2668 1.1195 1.5257 0
M  V30 48 H 55.6140 2.0405 0.0732 0
M  V30 49 H 57.2730 1.1558 -1.3644 0
M  V30 50 H 58.0402 2.0628 0.0045 0
M  V30 51 C 6.1329 -0.0005 -0.0002 0
M  V30 52 C 7.3210 0.8537 0.1931 0
M  V30 53 C 8.5121 -0.0005 -0.0002 0
M  V30 54 H 5.6513 -0.0024 -0.9576 0
M  V30 55 H 7.3433 1.3175 1.2161 0
M  V30 56 H 7.3436 1.6943 -0.5323 0
M  V30 57 H 9.3040 0.3410 -0.6606 0
M  V30 58 C 16.9453 0.0049 0.0019 0
M  V30 59 C 18.1334 0.8591 0.1952 0
M  V30 60 C 19.3244 0.0049 0.0019 0
M  V30 61 H 16.4637 0.0031 -0.9555 0
M  V30 62 H 18.1557 1.3229 1.2182 0
M  V30 63 H 18.1560 1.6997 -0.5302 0
M  V30 64 H 20.1163 0.3464 -0.6585 0
M  V30 65 C 28.5123 -0.0082 -0.0031 0
M  V30 66 C 29.7004 0.8460 0.1902 0
M  V30 67 C 30.8914 -0.0082 -0.0031 0
M  V30 68 H 28.0306 -0.0100 -0.9605 0
M  V30 69 H 29.7227 1.3098 1.2132 0
M  V30 70 H 29.7230 1.6866 -0.5352 0
M  V30 71 H 31.6833 0.3334 -0.6635 0
M  V30 72 C 39.9386 0.0117 0.0045 0
M  V30 73 C 41.1266 0.8659 0.1978 0
M  V30 74 C 42.3177 0.0117 0.0045 0
M  V30 75 H 39.4569 0.0099 -0.9529 0
M  V30 76 H 41.1490 1.3298 1.2208 0
M  V30 77 H 41.1493 1.7066 -0.5276 0
M  V30 78 H 43.1096 0.3533 -0.6559 0
M  V30 79 C 51.0692 0.0072 0.0024 0
M  V30 80 C 52.2573 0.8614 0.1957 0
M  V30 81 C 53.4484 0.0072 0.0024 0
M  V30 82 H 50.5876 0.0053 -0.9550 0
M  V30 83 H 52.2796 1.3252 1.2187 0
M  V30 84 H 52.2799 1.7020 -0.5297 0
M  V30 85 H 54.2403 0.3487 -0.6580 0
M  V30 86 C 60.3367 0.0137 0.0001 0
M  V30 87 C 61.5248 0.8679 0.1934 0
M  V30 88 C 62.7158 0.0137 0.0001 0
M  V30 89 O 62.8000 -1.0465 0.5718 0
M  V30 90 H 59.8551 0.0119 -0.9573 0
M  V30 91 H 61.5471 1.3317 1.2164 0
M  V30 92 H 61.5474 1.7085 -0.5320 0
M  V30 93 H 63.5078 0.3553 -0.6603 0
M  V30 END ATOM
M  V30 BEGIN BOND
M  V30 1 1 1 2
M  V30 2 1 2 3
M  V30 3 1 3 4
M  V30 4 1 1 5
M  V30 5 1 1 6
M  V30 6 1 2 7
M  V30 7 1 2 8
M  V30 8 1 3 9
M  V30 9 1 3 10
M  V30 10 1 11 12
M  V30 11 1 12 13
M  V30 12 1 13 14
M  V30 13 1 12 15
M  V30 14 1 12 16
M  V30 15 1 13 17
M  V30 16 1 13 18
M  V30 17 1 19 20
M  V30 18 1 20 21
M  V30 19 1 21 22
M  V30 20 1 20 23
M  V30 21 1 20 24
M  V30 22 1 21 25
M  V30 23 1 21 26
M  V30 24 1 27 28
M  V30 25 1 28 29
M  V30 26 1 29 30
M  V30 27 1 28 31
M  V30 28 1 28 32
M  V30 29 1 29 33
M  V30 30 1 29 34
M  V30 31 1 35 36
M  V30 32 1 36 37
M  V30 33 1 37 38
M  V30 34 1 36 39
M  V30 35 1 36 40
M  V30 36 1 37 41
M  V30 37 1 37 42
M  V30 38 1 43 44
M  V30 39 1 44 45
M  V30 40 1 45 46
M  V30 41 1 44 47
M  V30 42 1 44 48
M  V30 43 1 45 49
M  V30 44 1 45 50
M  V30 45 1 51 52
M  V30 46 1 52 53
M  V30 47 1 51 54
M  V30 48 1 52 55
M  V30 49 1 52 56
M  V30 50 1 53 57
M  V30 51 1 58 59
M  V30 52 1 59 60
M  V30 53 1 58 61
M  V30 54 1 59 62
M  V30 55 1 59 63
M  V30 56 1 60 64
M  V30 57 1 65 66
M  V30 58 1 66 67
M  V30 59 1 65 68
M  V30 60 1 66 69
M  V30 61 1 66 70
M  V30 62 1 67 71
M  V30 63 1 72 73
M  V30 64 1 73 74
M  V30 65 1 72 75
M  V30 66 1 73 76
M  V30 67 1 73 77
M  V30 68 1 74 78
M  V30 69 1 79 80
M  V30 70 1 80 81
M  V30 71 1 79 82
M  V30 72 1 80 83
M  V30 73 1 80 84
M  V30 74 1 81 85
M  V30 75 1 86 87
M  V30 76 1 87 88
M  V30 77 2 88 89
M  V30 78 1 86 90
M  V30 79 1 87 91
M  V30 80 1 87 92
M  V30 81 1 88 93
M  V30 82 2 4 51
M  V30 83 2 11 53
M  V30 84 2 14 58
M  V30 85 2 19 60
M  V30 86 2 22 65
M  V30 87 2 27 67
M  V30 88 2 30 72
M  V30 89 2 35 74
M  V30 90 2 38 79
M  V30 91 2 43 81
M  V30 92 2 46 86
M  V30 END BOND
M  V30 END CTAB
M  END

$$$$
