
     RDKit          3D

  0  0  0  0  0  0  0  0  0  0999 V3000
M  V30 BEGIN CTAB
M  V30 COUNTS 93 92 0 0 0
M  V30 BEGIN ATOM
M  V30 1 N 1.3496 0.0015 0.0012 0
M  V30 2 C 2.1323 1.1302 0.4233 0
M  V30 3 C 3.4962 1.1386 -0.2608 0
M  V30 4 N 4.2756 0.0015 0.0012 0
M  V30 5 H 1.0807 0.0958 -1.0021 0
M  V30 6 H 1.8502 -0.9130 0.1469 0
M  V30 7 H 2.2562 1.1219 1.5259 0
M  V30 8 H 1.6034 2.0429 0.0734 0
M  V30 9 H 3.2624 1.1582 -1.3641 0
M  V30 10 H 4.0296 2.0652 0.0047 0
M  V30 11 N 11.2086 0.0000 -0.0000 0
M  V30 12 C 11.9913 1.1287 0.4221 0
M  V30 13 C 13.3553 1.1370 -0.2621 0
M  V30 14 N 14.1346 -0.0000 0.0000 0
M  V30 15 H 12.1153 1.1204 1.5247 0
M  V30 16 H 11.4624 2.0413 0.0722 0
M  V30 17 H 13.1214 1.1566 -1.3654 0
M  V30 18 H 13.8886 2.0637 0.0034 0
M  V30 19 N 22.4941 -0.0043 -0.0012 0
M  V30 20 C 23.2768 1.1244 0.4209 0
M  V30 21 C 24.6408 1.1327 -0.2633 0
M  V30 22 N 25.4201 -0.0043 -0.0012 0
M  V30 23 H 23.4008 1.1161 1.5235 0
M  V30 24 H 22.7479 2.0371 0.0710 0
M  V30 25 H 24.4070 1.1524 -1.3666 0
M  V30 26 H 25.1741 2.0594 0.0023 0
M  V30 27 N 34.2947 0.0063 0.0017 0
M  V30 28 C 35.0774 1.1350 0.4238 0
M  V30 29 C 36.4413 1.1433 -0.2603 0
M  V30 30 N 37.2207 0.0063 0.0017 0
M  V30 31 H 35.2013 1.1267 1.5264 0
M  V30 32 H 34.5485 2.0476 0.0739 0
M  V30 33 H 36.2075 1.1629 -1.3636 0
M  V30 34 H 36.9747 2.0700 0.0052 0
M  V30 35 N 45.9091 -0.0028 -0.0008 0
M  V30 36 C 46.6918 1.1259 0.4213 0
M  V30 37 C 48.0558 1.1343 -0.2628 0
M  V30 38 N 48.8352 -0.0028 -0.0008 0
M  V30 39 H 46.8158 1.1176 1.5239 0
M  V30 40 H 46.1629 2.0386 0.0714 0
M  V30 41 H 47.8220 1.1539 -1.3661 0
M  V30 42 H 48.5891 2.0609 0.0027 0
M  V30 43 N 56.5465 -0.0052 0.0004 0
M  V30 44 C 57.3292 1.1235 0.4224 0
M  V30 45 C 58.6932 1.1318 -0.2617 0
M  V30 46 N 59.4725 -0.0052 0.0004 0
M  V30 47 H 57.4532 1.1152 1.5251 0
M  V30 48 H 56.8003 2.0361 0.0726 0
M  V30 49 H 58.4594 1.1514 -1.3650 0
M  V30 50 H 59.2265 2.0585 0.0038 0
M  V30 51 C 6.1800 -0.0002 -0.0001 0
M  V30 52 C 7.3681 0.8540 0.1932 0
M  V30 53 C 8.5592 -0.0002 -0.0001 0
M  V30 54 H 5.6984 -0.0020 -0.9576 0
M  V30 55 H 7.3905 1.3178 1.2161 0
M  V30 56 H 7.3907 1.6946 -0.5323 0
M  V30 57 H 9.3511 0.3413 -0.6605 0
M  V30 58 C 17.1551 -0.0004 -0.0001 0
M  V30 59 C 18.3432 0.8538 0.1932 0
M  V30 60 C 19.5342 -0.0004 -0.0001 0
M  V30 61 H 16.6735 -0.0022 -0.9575 0
M  V30 62 H 18.3655 1.3176 1.2162 0
M  V30 63 H 18.3658 1.6944 -0.5322 0
M  V30 64 H 20.3261 0.3411 -0.6605 0
M  V30 65 C 28.6249 -0.0175 -0.0067 0
M  V30 66 C 29.8130 0.8368 0.1866 0
M  V30 67 C 31.0041 -0.0175 -0.0067 0
M  V30 68 H 28.1433 -0.0193 -0.9641 0
M  V30 69 H 29.8354 1.3006 1.2096 0
M  V30 70 H 29.8356 1.6774 -0.5388 0
M  V30 71 H 31.7960 0.3241 -0.6671 0
M  V30 72 C 40.3675 0.0001 0.0000 0
M  V30 73 C 41.5556 0.8543 0.1933 0
M  V30 74 C 42.7467 0.0001 0.0000 0
M  V30 75 H 39.8859 -0.0017 -0.9574 0
M  V30 76 H 41.5779 1.3181 1.2163 0
M  V30 77 H 41.5782 1.6949 -0.5321 0
M  V30 78 H 43.5386 0.3416 -0.6603 0
M  V30 79 C 51.6701 0.0002 -0.0001 0
M  V30 80 C 52.8582 0.8544 0.1932 0
M  V30 81 C 54.0493 0.0002 -0.0001 0
M  V30 82 H 51.1885 -0.0017 -0.9575 0
M  V30 83 H 52.8806 1.3182 1.2161 0
M  V30 84 H 52.8809 1.6950 -0.5322 0
M  V30 85 H 54.8412 0.3417 -0.6605 0
M  V30 86 C 61.6540 0.0199 -0.0002 0
M  V30 87 C 62.8421 0.8742 0.1931 0
M  V30 88 C 64.0332 0.0199 -0.0002 0
M  V30 89 O 64.1173 -1.0403 0.5715 0
M  V30 90 H 61.1724 0.0181 -0.9576 0
M  V30 91 H 62.8644 1.3380 1.2161 0
M  V30 92 H 62.8647 1.7148 -0.5323 0
M  V30 93 H 64.8251 0.3615 -0.6605 0
M  V30 END ATOM
M  V30 BEGIN BOND
M  V30 1 1 1 2
M  V30 2 1 2 3
M  V30 3 1 3 4
M  V30 4 1 1 5
M  V30 5 1 1 6
M  V30 6 1 2 7
M  V30 7 1 2 8
M  V30 8 1 3 9
M  V30 9 1 3 10
M  V30 10 1 11 12
M  V30 11 1 12 13
M  V30 12 1 13 14
M  V30 13 1 12 15
M  V30 14 1 12 16
M  V30 15 1 13 17
M  V30 16 1 13 18
M  V30 17 1 19 20
M  V30 18 1 20 21
M  V30 19 1 21 22
M  V30 20 1 20 23
M  V30 21 1 20 24
M  V30 22 1 21 25
M  V30 23 1 21 26
M  V30 24 1 27 28
M  V30 25 1 28 29
M  V30 26 1 29 30
M  V30 27 1 28 31
M  V30 28 1 28 32
M  V30 29 1 29 33
M  V30 30 1 29 34
M  V30 31 1 35 36
M  V30 32 1 36 37
M  V30 33 1 37 38
M  V30 34 1 36 39
M  V30 35 1 36 40
M  V30 36 1 37 41
M  V30 37 1 37 42
M  V30 38 1 43 44
M  V30 39 1 44 45
M  V30 40 1 45 46
M  V30 41 1 44 47
M  V30 42 1 44 48
M  V30 43 1 45 49
M  V30 44 1 45 50
M  V30 45 1 51 52
M  V30 46 1 52 53
M  V30 47 1 51 54
M  V30 48 1 52 55
M  V30 49 1 52 56
M  V30 50 1 53 57
M  V30 51 1 58 59
M  V30 52 1 59 60
M  V30 53 1 58 61
M  V30 54 1 59 62
M  V30 55 1 59 63
M  V30 56 1 60 64
M  V30 57 1 65 66
M  V30 58 1 66 67
M  V30 59 1 65 68
M  V30 60 1 66 69
M  V30 61 1 66 70
M  V30 62 1 67 71
M  V30 63 1 72 73
M  V30 64 1 73 74
M  V30 65 1 72 75
M  V30 66 1 73 76
M  V30 67 1 73 77
M  V30 68 1 74 78
M  V30 69 1 79 80
M  V30 70 1 80 81
M  V30 71 1 79 82
M  V30 72 1 80 83
M  V30 73 1 80 84
M  V30 74 1 81 85
M  V30 75 1 86 87
M  V30 76 1 87 88
M  V30 77 2 88 89
M  V30 78 1 86 90
M  V30 79 1 87 91
M  V30 80 1 87 92
M  V30 81 1 88 93
M  V30 82 2 4 51
M  V30 83 2 11 53
M  V30 84 2 14 58
M  V30 85 2 19 60
M  V30 86 2 22 65
M  V30 87 2 27 67
M  V30 88 2 30 72
M  V30 89 2 35 74
M  V30 90 2 38 79
M  V30 91 2 43 81
M  V30 92 2 46 86
M  V30 END BOND
M  V30 END CTAB
M  END

$$$$
