
 OpenBabel11242011003D

 12 12  0  0  0  0  0  0  0  0999 V2000
   -4.1844   -0.5357   -0.0000 C   0  0  0  0  0  0  0  0  0  0  0  0
   -3.5023    0.6858   -0.0000 C   0  0  0  0  0  0  0  0  0  0  0  0
   -3.4676   -1.7372    0.0000 C   0  0  0  0  0  0  0  0  0  0  0  0
    4.0746   -1.3955    1.0072 C   0  0  0  0  0  0  0  0  0  0  0  0
    4.7567   -0.1740    1.0072 C   0  0  0  0  0  0  0  0  0  0  0  0
    4.0399    1.0275    1.0072 C   0  0  0  0  0  0  0  0  0  0  0  0
    4.5677    1.9724    1.0072 H   0  0  0  0  0  0  0  0  0  0  0  0
   -4.0569    1.6152   -0.0000 H   0  0  0  0  0  0  0  0  0  0  0  0
   -5.2666   -0.5512   -0.0000 H   0  0  0  0  0  0  0  0  0  0  0  0
   -3.9953   -2.6821    0.0000 H   0  0  0  0  0  0  0  0  0  0  0  0
    4.6291   -2.3250    1.0072 H   0  0  0  0  0  0  0  0  0  0  0  0
    5.8389   -0.1586    1.0072 H   0  0  0  0  0  0  0  0  0  0  0  0
  1  2  1  0  0  0  0
  1  3  2  0  0  0  0
  1  9  1  0  0  0  0
  2  8  1  0  0  0  0
  3  4  1  0  0  0  0
  3 10  1  0  0  0  0
  4  5  2  0  0  0  0
  4 11  1  0  0  0  0
  5  6  1  0  0  0  0
  5 12  1  0  0  0  0
  6  2  2  0  0  0  0
  6  7  1  0  0  0  0
M  END
