
 OpenBabel06082117253D

 66 72  0  0  0  0  0  0  0  0999 V2000
   -7.2440    2.4578   -3.6270 C   0  0  0  0  0  0  0  0  0  0  0  0
   -5.8386    2.4609   -3.5339 C   0  0  0  0  0  0  0  0  0  0  0  0
   -5.1750    1.4814   -2.7701 C   0  0  0  0  0  0  0  0  0  0  0  0
   -5.9587    0.4996   -2.1039 C   0  0  0  0  0  0  0  0  0  0  0  0
   -7.3752    0.4648   -2.2199 C   0  0  0  0  0  0  0  0  0  0  0  0
   -8.0096    1.4624   -2.9873 C   0  0  0  0  0  0  0  0  0  0  0  0
   -8.1135   -0.6916   -1.6506 C   0  0  0  0  0  0  0  0  0  0  0  0
   -8.5885   -1.6975   -1.1148 C   0  0  0  0  0  0  0  0  0  0  0  0
   -9.2114   -2.9062   -0.5039 C   0  0  0  0  0  0  0  0  0  0  0  0
   -8.5823   -3.5706    0.5527 C   0  0  0  0  0  0  0  0  0  0  0  0
   -9.0423   -4.8250    1.0307 C   0  0  0  0  0  0  0  0  0  0  0  0
  -10.1669   -5.4779    0.4650 C   0  0  0  0  0  0  0  0  0  0  0  0
  -10.8515   -4.7517   -0.5650 C   0  0  0  0  0  0  0  0  0  0  0  0
  -10.3776   -3.4934   -1.0453 C   0  0  0  0  0  0  0  0  0  0  0  0
  -10.6807   -6.8734    0.9676 C   0  0  0  0  0  0  0  0  0  0  0  0
  -12.0780   -7.1018    0.8955 C   0  0  0  0  0  0  0  0  0  0  0  0
  -12.6749   -8.2767    1.3669 C   0  0  0  0  0  0  0  0  0  0  0  0
  -11.9195   -9.2830    1.9413 C   0  0  0  0  0  0  0  0  0  0  0  0
  -10.5364   -9.1589    2.0145 C   0  0  0  0  0  0  0  0  0  0  0  0
   -9.7953  -10.2256    2.5586 C   0  0  0  0  0  0  0  0  0  0  0  0
   -8.4125  -10.1567    2.5704 C   0  0  0  0  0  0  0  0  0  0  0  0
   -7.7876   -9.0633    2.0601 N   0  0  0  0  0  0  0  0  0  0  0  0
   -8.4688   -7.9913    1.5509 C   0  0  0  0  0  0  0  0  0  0  0  0
   -9.8815   -7.9762    1.5172 C   0  0  0  0  0  0  0  0  0  0  0  0
   -3.6885    1.4043   -2.7932 C   0  0  0  0  0  0  0  0  0  0  0  0
   -2.4519    1.3705   -2.8403 C   0  0  0  0  0  0  0  0  0  0  0  0
   -0.9857    1.1485   -2.6554 C   0  0  0  0  0  0  0  0  0  0  0  0
    0.0020    1.4268   -3.6206 C   0  0  0  0  0  0  0  0  0  0  0  0
    1.3274    0.8622   -3.4871 C   0  0  0  0  0  0  0  0  0  0  0  0
    1.7402   -0.0152   -2.3880 C   0  0  0  0  0  0  0  0  0  0  0  0
    0.7211   -0.1388   -1.3773 C   0  0  0  0  0  0  0  0  0  0  0  0
   -0.5917    0.4390   -1.5239 C   0  0  0  0  0  0  0  0  0  0  0  0
    3.2778   -0.6484   -2.3733 C   0  0  0  0  0  0  0  0  0  0  0  0
    4.1772    0.2478   -2.8601 C   0  0  0  0  0  0  0  0  0  0  0  0
    5.5177    0.0294   -3.0310 C   0  0  0  0  0  0  0  0  0  0  0  0
    6.2039   -1.1110   -2.7255 C   0  0  0  0  0  0  0  0  0  0  0  0
    5.4593   -2.1875   -2.1685 C   0  0  0  0  0  0  0  0  0  0  0  0
    6.0678   -3.5043   -1.8110 C   0  0  0  0  0  0  0  0  0  0  0  0
    5.1875   -4.4340   -1.4251 C   0  0  0  0  0  0  0  0  0  0  0  0
    3.8717   -4.1834   -1.3746 N   0  0  0  0  0  0  0  0  0  0  0  0
    3.2368   -3.0118   -1.6296 C   0  0  0  0  0  0  0  0  0  0  0  0
    3.9686   -1.9391   -2.0197 C   0  0  0  0  0  0  0  0  0  0  0  0
   -7.7442    3.2134   -4.2251 H   0  0  0  0  0  0  0  0  0  0  0  0
   -5.2732    3.2143   -4.0779 H   0  0  0  0  0  0  0  0  0  0  0  0
   -5.4615   -0.2836   -1.5539 H   0  0  0  0  0  0  0  0  0  0  0  0
   -9.0862    1.4614   -3.1129 H   0  0  0  0  0  0  0  0  0  0  0  0
   -7.7120   -3.1175    0.9981 H   0  0  0  0  0  0  0  0  0  0  0  0
   -8.5101   -5.2624    1.8559 H   0  0  0  0  0  0  0  0  0  0  0  0
  -11.7312   -5.1706   -1.0379 H   0  0  0  0  0  0  0  0  0  0  0  0
  -10.9027   -3.0094   -1.8696 H   0  0  0  0  0  0  0  0  0  0  0  0
  -12.7359   -6.3522    0.4932 H   0  0  0  0  0  0  0  0  0  0  0  0
  -13.7467   -8.4047    1.2935 H   0  0  0  0  0  0  0  0  0  0  0  0
  -12.4154  -10.1809    2.3064 H   0  0  0  0  0  0  0  0  0  0  0  0
  -10.2843  -11.1157    2.9560 H   0  0  0  0  0  0  0  0  0  0  0  0
   -7.8338  -10.9875    2.9684 H   0  0  0  0  0  0  0  0  0  0  0  0
   -7.8956   -7.1890    1.1336 H   0  0  0  0  0  0  0  0  0  0  0  0
   -0.2610    2.0030   -4.5147 H   0  0  0  0  0  0  0  0  0  0  0  0
    2.0121    1.0732   -4.2967 H   0  0  0  0  0  0  0  0  0  0  0  0
    0.9045   -0.6682   -0.4651 H   0  0  0  0  0  0  0  0  0  0  0  0
   -1.3482    0.3042   -0.7556 H   0  0  0  0  0  0  0  0  0  0  0  0
    3.8604    1.2026   -3.1431 H   0  0  0  0  0  0  0  0  0  0  0  0
    6.0524    0.8200   -3.4442 H   0  0  0  0  0  0  0  0  0  0  0  0
    7.2590   -0.9967   -3.0071 H   0  0  0  0  0  0  0  0  0  0  0  0
    7.1708   -3.9514   -1.8241 H   0  0  0  0  0  0  0  0  0  0  0  0
    5.5364   -5.3895   -1.1941 H   0  0  0  0  0  0  0  0  0  0  0  0
    2.1299   -2.9680   -1.5716 H   0  0  0  0  0  0  0  0  0  0  0  0
  1  2  2  0  0  0  0
  1  6  1  0  0  0  0
  1 43  1  0  0  0  0
  2  3  1  0  0  0  0
  2 44  1  0  0  0  0
  3  4  2  0  0  0  0
  3 25  1  0  0  0  0
  4  5  1  0  0  0  0
  4 45  1  0  0  0  0
  5  6  2  0  0  0  0
  5  7  1  0  0  0  0
  6 46  1  0  0  0  0
  7  8  3  0  0  0  0
  8  9  1  0  0  0  0
  9 10  2  0  0  0  0
  9 14  1  0  0  0  0
 10 11  1  0  0  0  0
 10 47  1  0  0  0  0
 11 12  2  0  0  0  0
 11 48  1  0  0  0  0
 12 13  1  0  0  0  0
 12 15  1  0  0  0  0
 13 14  2  0  0  0  0
 13 49  1  0  0  0  0
 14 50  1  0  0  0  0
 15 16  2  0  0  0  0
 15 24  1  0  0  0  0
 16 17  1  0  0  0  0
 16 51  1  0  0  0  0
 17 18  2  0  0  0  0
 17 52  1  0  0  0  0
 18 19  1  0  0  0  0
 18 53  1  0  0  0  0
 19 20  2  0  0  0  0
 19 24  1  0  0  0  0
 20 21  1  0  0  0  0
 20 54  1  0  0  0  0
 21 22  2  0  0  0  0
 21 55  1  0  0  0  0
 22 23  1  0  0  0  0
 23 24  2  0  0  0  0
 23 56  1  0  0  0  0
 25 26  3  0  0  0  0
 26 27  1  0  0  0  0
 27 28  2  0  0  0  0
 27 32  1  0  0  0  0
 28 29  1  0  0  0  0
 28 57  1  0  0  0  0
 29 30  2  0  0  0  0
 29 58  1  0  0  0  0
 30 31  1  0  0  0  0
 30 33  1  0  0  0  0
 31 32  2  0  0  0  0
 31 59  1  0  0  0  0
 32 60  1  0  0  0  0
 33 34  2  0  0  0  0
 33 42  1  0  0  0  0
 34 35  1  0  0  0  0
 34 61  1  0  0  0  0
 35 36  2  0  0  0  0
 35 62  1  0  0  0  0
 36 37  1  0  0  0  0
 36 63  1  0  0  0  0
 37 38  2  0  0  0  0
 37 42  1  0  0  0  0
 38 39  1  0  0  0  0
 38 64  1  0  0  0  0
 39 40  2  0  0  0  0
 39 65  1  0  0  0  0
 40 41  1  0  0  0  0
 41 42  2  0  0  0  0
 41 66  1  0  0  0  0
M  END
