
     RDKit          3D

  0  0  0  0  0  0  0  0  0  0999 V3000
M  V30 BEGIN CTAB
M  V30 COUNTS 112 113 0 0 0
M  V30 BEGIN ATOM
M  V30 1 C -0.9455 -0.6538 5.5048 0
M  V30 2 C 0.2703 0.0662 5.9659 0
M  V30 3 C 1.4968 -0.6660 5.5048 0
M  V30 4 C 0.2524 1.4601 5.5048 0
M  V30 5 H -1.1427 -0.8193 4.4594 0
M  V30 6 H 0.2907 0.0796 7.0767 0
M  V30 7 H 1.6458 -0.8040 4.4285 0
M  V30 8 H 1.0375 2.1738 5.7220 0
M  V30 9 C -4.6465 -2.7891 -0.6072 0
M  V30 10 C -4.6072 -2.7845 -2.0931 0
M  V30 11 C -4.6535 -1.3709 -2.5956 0
M  V30 12 C -3.4260 -3.5068 -2.5819 0
M  V30 13 H -3.8884 -2.2999 -0.0197 0
M  V30 14 H -5.5064 -3.3053 -2.4863 0
M  V30 15 H -3.8544 -0.6855 -2.2934 0
M  V30 16 H -3.1913 -3.6317 -3.6317 0
M  V30 17 C 5.3125 -2.8668 -0.6456 0
M  V30 18 C 5.3233 -2.8713 -2.1293 0
M  V30 19 Cl 6.8002 -3.7097 -2.6491 0
M  V30 20 C 4.1039 -3.5502 -2.6396 0
M  V30 21 C 5.2891 -1.4721 -2.6752 0
M  V30 22 H 6.1156 -2.4180 -0.0800 0
M  V30 23 H 3.9461 -3.6451 -3.7036 0
M  V30 24 H 4.4194 -0.8896 -2.3900 0
M  V30 25 C 0.3526 5.7964 -0.6178 0
M  V30 26 C 0.3512 5.8079 -2.1015 0
M  V30 27 Cl 0.3387 7.5062 -2.6213 0
M  V30 28 C 1.5488 5.0914 -2.6118 0
M  V30 29 C -0.8435 5.0788 -2.6474 0
M  V30 30 H -0.4376 6.2675 -0.0522 0
M  V30 31 H 1.7099 5.0022 -3.6758 0
M  V30 32 H -0.9131 4.0343 -2.3621 0
M  V30 33 N -1.6425 -1.0438 3.2459 0
M  V30 34 C -3.0298 -1.4174 3.2689 0
M  V30 35 C -3.3537 -2.3940 2.1420 0
M  V30 36 N -3.1055 -1.8885 0.8568 0
M  V30 37 H -3.6724 -0.5161 3.1919 0
M  V30 38 H -3.2032 -1.9691 4.2179 0
M  V30 39 H -2.6635 -3.2692 2.3152 0
M  V30 40 H -4.3950 -2.7377 2.2480 0
M  V30 41 N 1.5085 -0.6419 3.6697 0
M  V30 42 C 2.4083 -1.1906 2.6439 0
M  V30 43 C 3.3938 -1.8101 1.8361 0
M  V30 44 Cl 4.5411 -2.6936 2.7855 0
M  V30 45 N 3.4901 -1.7859 0.4338 0
M  V30 46 H 2.5849 -0.2282 2.2107 0
M  V30 47 H 2.1173 -2.1677 2.9683 0
M  V30 48 H 3.1172 -1.3769 0.8976 0
M  V30 49 C 5.5777 -3.6106 2.7635 0
M  V30 50 C 5.7041 -2.3578 3.6076 0
M  V30 51 H 5.4285 -3.3373 1.7398 0
M  V30 52 H 4.7432 -4.1872 3.1040 0
M  V30 53 H 6.4720 -4.1914 2.8510 0
M  V30 54 H 4.8097 -1.7770 3.5202 0
M  V30 55 H 6.5386 -1.7810 3.2672 0
M  V30 56 H 5.8533 -2.6311 4.6313 0
M  V30 57 N 0.2658 1.6717 4.3746 0
M  V30 58 C -0.1484 3.0341 4.1056 0
M  V30 59 C 0.4779 3.5303 2.7975 0
M  V30 60 C 0.0382 4.9609 2.5218 0
M  V30 61 C 0.6422 5.4765 1.2358 0
M  V30 62 N 0.2658 4.6980 0.0948 0
M  V30 63 H 0.3036 3.6614 4.9230 0
M  V30 64 H -1.2411 3.1660 4.0927 0
M  V30 65 H 1.5806 3.5678 2.9093 0
M  V30 66 H 0.1892 2.8761 1.9610 0
M  V30 67 H 0.3353 5.5703 3.3795 0
M  V30 68 H -1.0575 4.9956 2.4236 0
M  V30 69 H 1.7542 5.5185 1.2873 0
M  V30 70 H 0.2995 6.5171 1.0756 0
M  V30 71 N -2.4542 -3.1287 -2.3583 0
M  V30 72 C -1.4480 -4.1493 -2.5728 0
M  V30 73 C -0.0935 -3.5018 -2.8820 0
M  V30 74 C 0.9576 -4.5794 -3.1056 0
M  V30 75 C 2.3053 -3.9681 -3.4130 0
M  V30 76 N 2.7874 -3.1287 -2.3583 0
M  V30 77 H -1.7533 -4.6917 -3.5101 0
M  V30 78 H -1.3613 -4.8621 -1.7385 0
M  V30 79 H -0.1631 -2.9427 -3.8372 0
M  V30 80 H 0.2119 -2.8381 -2.0589 0
M  V30 81 H 0.6091 -5.2184 -3.9214 0
M  V30 82 H 1.0578 -5.1889 -2.1945 0
M  V30 83 H 2.2875 -3.3783 -4.3579 0
M  V30 84 H 3.0368 -4.7842 -3.5705 0
M  V30 85 N -3.8036 -0.7295 -2.3334 0
M  V30 86 C -3.7694 0.4126 -3.2248 0
M  V30 87 C -3.1583 1.6239 -2.5114 0
M  V30 88 C -3.1255 2.8186 -3.4535 0
M  V30 89 C -2.5269 4.0292 -2.7748 0
M  V30 90 N -1.1828 3.8099 -2.3334 0
M  V30 91 H -4.8437 0.6804 -3.4250 0
M  V30 92 H -3.2496 0.2126 -4.1743 0
M  V30 93 H -3.8126 1.9212 -1.6667 0
M  V30 94 H -2.1425 1.3899 -2.1588 0
M  V30 95 H -4.1500 3.0077 -3.7851 0
M  V30 96 H -2.5066 2.5770 -4.3311 0
M  V30 97 H -3.1379 4.3614 -1.9046 0
M  V30 98 H -2.5246 4.8726 -3.4922 0
M  V30 99 N 4.4920 -0.6335 -2.4612 0
M  V30 100 C 4.8721 0.7478 -2.6791 0
M  V30 101 C 3.6332 1.5966 -2.9861 0
M  V30 102 C 4.0403 3.0453 -3.2134 0
M  V30 103 C 2.8362 3.9063 -3.5187 0
M  V30 104 N 1.8711 3.9059 -2.4612 0
M  V30 105 H 5.4918 0.7531 -3.6183 0
M  V30 106 H 5.4485 1.1807 -1.8472 0
M  V30 107 H 3.1811 1.2552 -3.9395 0
M  V30 108 H 2.9082 1.5306 -2.1609 0
M  V30 109 H 4.7655 3.0617 -4.0313 0
M  V30 110 H 4.5207 3.4384 -2.3044 0
M  V30 111 H 2.3315 3.5944 -4.4616 0
M  V30 112 H 3.1767 4.9476 -3.6790 0
M  V30 END ATOM
M  V30 BEGIN BOND
M  V30 1 1 1 2
M  V30 2 1 2 3
M  V30 3 1 2 4
M  V30 4 1 1 5
M  V30 5 1 2 6
M  V30 6 1 3 7
M  V30 7 1 4 8
M  V30 8 1 9 10
M  V30 9 1 10 11
M  V30 10 1 10 12
M  V30 11 1 9 13
M  V30 12 1 10 14
M  V30 13 1 11 15
M  V30 14 1 12 16
M  V30 15 1 17 18
M  V30 16 1 18 19
M  V30 17 1 18 20
M  V30 18 1 18 21
M  V30 19 1 17 22
M  V30 20 1 20 23
M  V30 21 1 21 24
M  V30 22 1 25 26
M  V30 23 1 26 27
M  V30 24 1 26 28
M  V30 25 1 26 29
M  V30 26 1 25 30
M  V30 27 1 28 31
M  V30 28 1 29 32
M  V30 29 1 33 34
M  V30 30 1 34 35
M  V30 31 1 35 36
M  V30 32 1 34 37
M  V30 33 1 34 38
M  V30 34 1 35 39
M  V30 35 1 35 40
M  V30 36 1 41 42
M  V30 37 1 42 43
M  V30 38 1 42 46
M  V30 39 1 42 47
M  V30 40 1 43 44
M  V30 41 1 43 45
M  V30 42 1 43 48
M  V30 43 1 49 50
M  V30 44 1 49 51
M  V30 45 1 49 52
M  V30 46 1 49 53
M  V30 47 1 50 54
M  V30 48 1 50 55
M  V30 49 1 50 56
M  V30 50 1 57 58
M  V30 51 1 58 59
M  V30 52 1 59 60
M  V30 53 1 60 61
M  V30 54 1 61 62
M  V30 55 1 58 63
M  V30 56 1 58 64
M  V30 57 1 59 65
M  V30 58 1 59 66
M  V30 59 1 60 67
M  V30 60 1 60 68
M  V30 61 1 61 69
M  V30 62 1 61 70
M  V30 63 1 71 72
M  V30 64 1 72 73
M  V30 65 1 73 74
M  V30 66 1 74 75
M  V30 67 1 75 76
M  V30 68 1 72 77
M  V30 69 1 72 78
M  V30 70 1 73 79
M  V30 71 1 73 80
M  V30 72 1 74 81
M  V30 73 1 74 82
M  V30 74 1 75 83
M  V30 75 1 75 84
M  V30 76 1 85 86
M  V30 77 1 86 87
M  V30 78 1 87 88
M  V30 79 1 88 89
M  V30 80 1 89 90
M  V30 81 1 86 91
M  V30 82 1 86 92
M  V30 83 1 87 93
M  V30 84 1 87 94
M  V30 85 1 88 95
M  V30 86 1 88 96
M  V30 87 1 89 97
M  V30 88 1 89 98
M  V30 89 1 99 100
M  V30 90 1 100 101
M  V30 91 1 101 102
M  V30 92 1 102 103
M  V30 93 1 103 104
M  V30 94 1 100 105
M  V30 95 1 100 106
M  V30 96 1 101 107
M  V30 97 1 101 108
M  V30 98 1 102 109
M  V30 99 1 102 110
M  V30 100 1 103 111
M  V30 101 1 103 112
M  V30 102 2 1 33
M  V30 103 2 9 36
M  V30 104 2 3 41
M  V30 105 2 17 45
M  V30 106 2 4 57
M  V30 107 2 25 62
M  V30 108 2 12 71
M  V30 109 2 20 76
M  V30 110 2 11 85
M  V30 111 2 29 90
M  V30 112 2 21 99
M  V30 113 2 28 104
M  V30 END BOND
M  V30 END CTAB
M  END

$$$$
