
     RDKit          3D

  0  0  0  0  0  0  0  0  0  0999 V3000
M  V30 BEGIN CTAB
M  V30 COUNTS 112 113 0 0 0
M  V30 BEGIN ATOM
M  V30 1 C -1.2134 -0.7006 10.8546 0
M  V30 2 C 0.0024 0.0195 11.3157 0
M  V30 3 C 1.2289 -0.7128 10.8546 0
M  V30 4 C -0.0155 1.4134 10.8546 0
M  V30 5 H -1.4106 -0.8660 9.8092 0
M  V30 6 H 0.0228 0.0328 12.4265 0
M  V30 7 H 1.3779 -0.8508 9.7783 0
M  V30 8 H 0.7696 2.1271 11.0718 0
M  V30 9 C -9.2672 -5.3504 -2.2972 0
M  V30 10 C -9.2280 -5.3459 -3.7831 0
M  V30 11 C -9.2743 -3.9322 -4.2856 0
M  V30 12 C -8.0467 -6.0681 -4.2718 0
M  V30 13 H -8.5092 -4.8612 -1.7097 0
M  V30 14 H -10.1272 -5.8666 -4.1762 0
M  V30 15 H -8.4751 -3.2468 -3.9834 0
M  V30 16 H -7.8120 -6.1930 -5.3217 0
M  V30 17 C 9.2734 -5.3540 -2.2770 0
M  V30 18 C 9.2842 -5.3585 -3.7607 0
M  V30 19 Cl 10.7611 -6.1969 -4.2805 0
M  V30 20 C 8.0648 -6.0374 -4.2710 0
M  V30 21 C 9.2500 -3.9593 -4.3066 0
M  V30 22 H 10.0765 -4.9052 -1.7114 0
M  V30 23 H 7.9070 -6.1323 -5.3350 0
M  V30 24 H 8.3803 -3.3769 -4.0213 0
M  V30 25 C -0.0000 10.7080 -2.2770 0
M  V30 26 C -0.0015 10.7196 -3.7607 0
M  V30 27 Cl -0.0139 12.4179 -4.2805 0
M  V30 28 C 1.1962 10.0030 -4.2710 0
M  V30 29 C -1.1962 9.9904 -4.3066 0
M  V30 30 H -0.7902 11.1791 -1.7114 0
M  V30 31 H 1.3573 9.9138 -5.3350 0
M  V30 32 H -1.2657 8.9460 -4.0213 0
M  V30 33 N -4.5088 -2.6032 5.4732 0
M  V30 34 C -5.8961 -2.9767 5.4963 0
M  V30 35 C -6.2200 -3.9533 4.3694 0
M  V30 36 N -5.9718 -3.4478 3.0842 0
M  V30 37 H -6.5387 -2.0754 5.4193 0
M  V30 38 H -6.0695 -3.5285 6.4453 0
M  V30 39 H -5.5298 -4.8285 4.5426 0
M  V30 40 H -7.2613 -4.2971 4.4754 0
M  V30 41 N 4.2604 -2.4614 5.9068 0
M  V30 42 C 5.1602 -3.0100 4.8809 0
M  V30 43 C 6.1457 -3.6296 4.0732 0
M  V30 44 Cl 7.2930 -4.5131 5.0225 0
M  V30 45 N 6.2420 -3.6054 2.6708 0
M  V30 46 H 5.3368 -2.0477 4.4477 0
M  V30 47 H 4.8692 -3.9872 5.2054 0
M  V30 48 H 5.8691 -3.1964 3.1346 0
M  V30 49 C 8.3295 -5.4300 5.0005 0
M  V30 50 C 8.4560 -4.1772 5.8446 0
M  V30 51 H 8.1803 -5.1568 3.9768 0
M  V30 52 H 7.4950 -6.0067 5.3410 0
M  V30 53 H 9.2239 -6.0109 5.0880 0
M  V30 54 H 7.5616 -3.5964 5.7572 0
M  V30 55 H 9.2905 -3.6005 5.5042 0
M  V30 56 H 8.6051 -4.4506 6.8683 0
M  V30 57 N -0.0077 4.5475 6.4287 0
M  V30 58 C -0.4220 5.9100 6.1597 0
M  V30 59 C 0.2044 6.4061 4.8516 0
M  V30 60 C -0.2354 7.8368 4.5760 0
M  V30 61 C 0.3686 8.3523 3.2899 0
M  V30 62 N -0.0077 7.5738 2.1489 0
M  V30 63 H 0.0301 6.5373 6.9771 0
M  V30 64 H -1.5147 6.0419 6.1468 0
M  V30 65 H 1.3071 6.4436 4.9634 0
M  V30 66 H -0.0844 5.7520 4.0151 0
M  V30 67 H 0.0618 8.4462 5.4336 0
M  V30 68 H -1.3311 7.8714 4.4777 0
M  V30 69 H 1.4806 8.3944 3.3414 0
M  V30 70 H 0.0260 9.3930 3.1298 0
M  V30 71 N -2.6118 -6.0527 -4.2714 0
M  V30 72 C -1.6056 -7.0734 -4.4859 0
M  V30 73 C -0.2511 -6.4259 -4.7951 0
M  V30 74 C 0.8000 -7.5035 -5.0187 0
M  V30 75 C 2.1477 -6.8922 -5.3261 0
M  V30 76 N 2.6299 -6.0527 -4.2714 0
M  V30 77 H -1.9108 -7.6158 -5.4232 0
M  V30 78 H -1.5189 -7.7862 -3.6516 0
M  V30 79 H -0.3207 -5.8668 -5.7503 0
M  V30 80 H 0.0543 -5.7622 -3.9721 0
M  V30 81 H 0.4516 -8.1425 -5.8345 0
M  V30 82 H 0.9002 -8.1130 -4.1077 0
M  V30 83 H 2.1299 -6.3024 -6.2710 0
M  V30 84 H 2.8793 -7.7083 -5.4836 0
M  V30 85 N -6.5456 0.7594 -4.2961 0
M  V30 86 C -6.5114 1.9015 -5.1875 0
M  V30 87 C -5.9004 3.1128 -4.4740 0
M  V30 88 C -5.8675 4.3075 -5.4162 0
M  V30 89 C -5.2689 5.5181 -4.7375 0
M  V30 90 N -3.9248 5.2988 -4.2961 0
M  V30 91 H -7.5857 2.1693 -5.3877 0
M  V30 92 H -5.9916 1.7015 -6.1370 0
M  V30 93 H -6.5546 3.4101 -3.6294 0
M  V30 94 H -4.8845 2.8789 -4.1215 0
M  V30 95 H -6.8920 4.4967 -5.7478 0
M  V30 96 H -5.2486 4.0659 -6.2938 0
M  V30 97 H -5.8799 5.8504 -3.8673 0
M  V30 98 H -5.2666 6.3615 -5.4549 0
M  V30 99 N 6.5335 0.7521 -4.2888 0
M  V30 100 C 6.9137 2.1335 -4.5067 0
M  V30 101 C 5.6747 2.9823 -4.8137 0
M  V30 102 C 6.0818 4.4310 -5.0409 0
M  V30 103 C 4.8777 5.2920 -5.3463 0
M  V30 104 N 3.9127 5.2916 -4.2888 0
M  V30 105 H 7.5333 2.1388 -5.4459 0
M  V30 106 H 7.4900 2.5664 -3.6748 0
M  V30 107 H 5.2226 2.6408 -5.7671 0
M  V30 108 H 4.9497 2.9163 -3.9885 0
M  V30 109 H 6.8070 4.4473 -5.8589 0
M  V30 110 H 6.5622 4.8240 -4.1320 0
M  V30 111 H 4.3730 4.9801 -6.2892 0
M  V30 112 H 5.2182 6.3333 -5.5066 0
M  V30 END ATOM
M  V30 BEGIN BOND
M  V30 1 1 1 2
M  V30 2 1 2 3
M  V30 3 1 2 4
M  V30 4 1 1 5
M  V30 5 1 2 6
M  V30 6 1 3 7
M  V30 7 1 4 8
M  V30 8 1 9 10
M  V30 9 1 10 11
M  V30 10 1 10 12
M  V30 11 1 9 13
M  V30 12 1 10 14
M  V30 13 1 11 15
M  V30 14 1 12 16
M  V30 15 1 17 18
M  V30 16 1 18 19
M  V30 17 1 18 20
M  V30 18 1 18 21
M  V30 19 1 17 22
M  V30 20 1 20 23
M  V30 21 1 21 24
M  V30 22 1 25 26
M  V30 23 1 26 27
M  V30 24 1 26 28
M  V30 25 1 26 29
M  V30 26 1 25 30
M  V30 27 1 28 31
M  V30 28 1 29 32
M  V30 29 1 33 34
M  V30 30 1 34 35
M  V30 31 1 35 36
M  V30 32 1 34 37
M  V30 33 1 34 38
M  V30 34 1 35 39
M  V30 35 1 35 40
M  V30 36 1 41 42
M  V30 37 1 42 43
M  V30 38 1 42 46
M  V30 39 1 42 47
M  V30 40 1 43 44
M  V30 41 1 43 45
M  V30 42 1 43 48
M  V30 43 1 49 50
M  V30 44 1 49 51
M  V30 45 1 49 52
M  V30 46 1 49 53
M  V30 47 1 50 54
M  V30 48 1 50 55
M  V30 49 1 50 56
M  V30 50 1 57 58
M  V30 51 1 58 59
M  V30 52 1 59 60
M  V30 53 1 60 61
M  V30 54 1 61 62
M  V30 55 1 58 63
M  V30 56 1 58 64
M  V30 57 1 59 65
M  V30 58 1 59 66
M  V30 59 1 60 67
M  V30 60 1 60 68
M  V30 61 1 61 69
M  V30 62 1 61 70
M  V30 63 1 71 72
M  V30 64 1 72 73
M  V30 65 1 73 74
M  V30 66 1 74 75
M  V30 67 1 75 76
M  V30 68 1 72 77
M  V30 69 1 72 78
M  V30 70 1 73 79
M  V30 71 1 73 80
M  V30 72 1 74 81
M  V30 73 1 74 82
M  V30 74 1 75 83
M  V30 75 1 75 84
M  V30 76 1 85 86
M  V30 77 1 86 87
M  V30 78 1 87 88
M  V30 79 1 88 89
M  V30 80 1 89 90
M  V30 81 1 86 91
M  V30 82 1 86 92
M  V30 83 1 87 93
M  V30 84 1 87 94
M  V30 85 1 88 95
M  V30 86 1 88 96
M  V30 87 1 89 97
M  V30 88 1 89 98
M  V30 89 1 99 100
M  V30 90 1 100 101
M  V30 91 1 101 102
M  V30 92 1 102 103
M  V30 93 1 103 104
M  V30 94 1 100 105
M  V30 95 1 100 106
M  V30 96 1 101 107
M  V30 97 1 101 108
M  V30 98 1 102 109
M  V30 99 1 102 110
M  V30 100 1 103 111
M  V30 101 1 103 112
M  V30 102 2 1 33
M  V30 103 2 9 36
M  V30 104 2 3 41
M  V30 105 2 17 45
M  V30 106 2 4 57
M  V30 107 2 25 62
M  V30 108 2 12 71
M  V30 109 2 20 76
M  V30 110 2 11 85
M  V30 111 2 29 90
M  V30 112 2 21 99
M  V30 113 2 28 104
M  V30 END BOND
M  V30 END CTAB
M  END

$$$$
