
     RDKit          3D

  0  0  0  0  0  0  0  0  0  0999 V3000
M  V30 BEGIN CTAB
M  V30 COUNTS 112 113 0 0 0
M  V30 BEGIN ATOM
M  V30 1 C -1.4857 -0.7644 4.8014 0
M  V30 2 C -0.2698 -0.0444 5.2626 0
M  V30 3 C 0.9567 -0.7766 4.8014 0
M  V30 4 C -0.2877 1.3495 4.8014 0
M  V30 5 H -1.6829 -0.9299 3.7560 0
M  V30 6 H -0.2494 -0.0310 6.3733 0
M  V30 7 H 1.1057 -0.9146 3.7251 0
M  V30 8 H 0.4974 2.0632 5.0187 0
M  V30 9 C -5.6148 -3.0102 0.1009 0
M  V30 10 C -5.5756 -3.0056 -1.3850 0
M  V30 11 C -5.6218 -1.5920 -1.8876 0
M  V30 12 C -4.3943 -3.7279 -1.8738 0
M  V30 13 H -4.8567 -2.5210 0.6884 0
M  V30 14 H -6.4748 -3.5264 -1.7782 0
M  V30 15 H -4.8227 -0.9066 -1.5854 0
M  V30 16 H -4.1596 -3.8528 -2.9237 0
M  V30 17 C 5.0747 -2.6133 -0.0940 0
M  V30 18 C 5.0855 -2.6178 -1.5777 0
M  V30 19 Cl 6.5624 -3.4562 -2.0974 0
M  V30 20 C 3.8661 -3.2967 -2.0880 0
M  V30 21 C 5.0513 -1.2186 -2.1236 0
M  V30 22 H 5.8778 -2.1646 0.4716 0
M  V30 23 H 3.7083 -3.3917 -3.1520 0
M  V30 24 H 4.1816 -0.6362 -1.8383 0
M  V30 25 C -0.3219 5.6667 -0.6080 0
M  V30 26 C -0.3234 5.6783 -2.0917 0
M  V30 27 Cl -0.3358 7.3766 -2.6114 0
M  V30 28 C 0.8742 4.9617 -2.6020 0
M  V30 29 C -1.5181 4.9491 -2.6376 0
M  V30 30 H -1.1121 6.1379 -0.0424 0
M  V30 31 H 1.0353 4.8725 -3.6660 0
M  V30 32 H -1.5876 3.9047 -2.3523 0
M  V30 33 N -3.2851 -1.7385 4.4561 0
M  V30 34 C -4.6724 -2.1121 4.4791 0
M  V30 35 C -4.9963 -3.0887 3.3522 0
M  V30 36 N -4.7481 -2.5832 2.0670 0
M  V30 37 H -5.3151 -1.2108 4.4021 0
M  V30 38 H -4.8458 -2.6639 5.4281 0
M  V30 39 H -4.3062 -3.9639 3.5254 0
M  V30 40 H -6.0376 -3.4324 3.4582 0
M  V30 41 N 2.4404 -1.3264 4.7255 0
M  V30 42 C 3.3403 -1.8751 3.6996 0
M  V30 43 C 4.3257 -2.4947 2.8919 0
M  V30 44 Cl 5.4730 -3.3782 3.8413 0
M  V30 45 N 4.4220 -2.4705 1.4896 0
M  V30 46 H 3.5168 -0.9127 3.2665 0
M  V30 47 H 3.0492 -2.8523 4.0241 0
M  V30 48 H 4.0491 -2.0615 1.9533 0
M  V30 49 C 6.5096 -4.2951 3.8192 0
M  V30 50 C 6.6360 -3.0423 4.6633 0
M  V30 51 H 6.3604 -4.0219 2.7955 0
M  V30 52 H 5.6751 -4.8718 4.1597 0
M  V30 53 H 7.4039 -4.8760 3.9067 0
M  V30 54 H 5.7417 -2.4615 4.5759 0
M  V30 55 H 7.4706 -2.4656 4.3229 0
M  V30 56 H 6.7852 -3.3156 5.6871 0
M  V30 57 N 0.0035 3.2945 5.1500 0
M  V30 58 C -0.4107 4.6570 4.8810 0
M  V30 59 C 0.2156 5.1531 3.5729 0
M  V30 60 C -0.2241 6.5838 3.2972 0
M  V30 61 C 0.3799 7.0993 2.0112 0
M  V30 62 N 0.0035 6.3208 0.8701 0
M  V30 63 H 0.0413 5.2842 5.6984 0
M  V30 64 H -1.5034 4.7888 4.8680 0
M  V30 65 H 1.3183 5.1906 3.6847 0
M  V30 66 H -0.0731 4.4990 2.7364 0
M  V30 67 H 0.0730 7.1932 4.1549 0
M  V30 68 H -1.3198 6.6184 3.1990 0
M  V30 69 H 1.4919 7.1414 2.0626 0
M  V30 70 H 0.0372 8.1400 1.8510 0
M  V30 71 N -2.8991 -3.9436 -2.9148 0
M  V30 72 C -1.8929 -4.9642 -3.1293 0
M  V30 73 C -0.5384 -4.3167 -3.4385 0
M  V30 74 C 0.5127 -5.3944 -3.6621 0
M  V30 75 C 1.8604 -4.7831 -3.9695 0
M  V30 76 N 2.3425 -3.9436 -2.9148 0
M  V30 77 H -2.1982 -5.5067 -4.0666 0
M  V30 78 H -1.8062 -5.6770 -2.2950 0
M  V30 79 H -0.6080 -3.7576 -4.3937 0
M  V30 80 H -0.2330 -3.6531 -2.6155 0
M  V30 81 H 0.1642 -6.0333 -4.4779 0
M  V30 82 H 0.6129 -6.0039 -2.7511 0
M  V30 83 H 1.8426 -4.1933 -4.9144 0
M  V30 84 H 2.5919 -5.5992 -4.1270 0
M  V30 85 N -5.5000 -0.4986 -3.2660 0
M  V30 86 C -5.4658 0.6435 -4.1574 0
M  V30 87 C -4.8548 1.8548 -3.4439 0
M  V30 88 C -4.8219 3.0495 -4.3861 0
M  V30 89 C -4.2233 4.2601 -3.7074 0
M  V30 90 N -2.8792 4.0408 -3.2660 0
M  V30 91 H -6.5401 0.9113 -4.3576 0
M  V30 92 H -4.9460 0.4435 -5.1069 0
M  V30 93 H -5.5090 2.1521 -2.5993 0
M  V30 94 H -3.8389 1.6209 -3.0914 0
M  V30 95 H -5.8464 3.2386 -4.7177 0
M  V30 96 H -4.2030 2.8079 -5.2637 0
M  V30 97 H -4.8343 4.5923 -2.8372 0
M  V30 98 H -4.2210 5.1035 -4.4248 0
M  V30 99 N 5.1574 -0.0224 -3.1083 0
M  V30 100 C 5.5376 1.3590 -3.3262 0
M  V30 101 C 4.2986 2.2077 -3.6332 0
M  V30 102 C 4.7057 3.6564 -3.8605 0
M  V30 103 C 3.5016 4.5174 -4.1658 0
M  V30 104 N 2.5366 4.5170 -3.1083 0
M  V30 105 H 6.1572 1.3642 -4.2654 0
M  V30 106 H 6.1140 1.7918 -2.4943 0
M  V30 107 H 3.8465 1.8663 -4.5866 0
M  V30 108 H 3.5736 2.1417 -2.8080 0
M  V30 109 H 5.4309 3.6728 -4.6784 0
M  V30 110 H 5.1861 4.0495 -2.9515 0
M  V30 111 H 2.9970 4.2056 -5.1087 0
M  V30 112 H 3.8421 5.5588 -4.3261 0
M  V30 END ATOM
M  V30 BEGIN BOND
M  V30 1 1 1 2
M  V30 2 1 2 3
M  V30 3 1 2 4
M  V30 4 1 1 5
M  V30 5 1 2 6
M  V30 6 1 3 7
M  V30 7 1 4 8
M  V30 8 1 9 10
M  V30 9 1 10 11
M  V30 10 1 10 12
M  V30 11 1 9 13
M  V30 12 1 10 14
M  V30 13 1 11 15
M  V30 14 1 12 16
M  V30 15 1 17 18
M  V30 16 1 18 19
M  V30 17 1 18 20
M  V30 18 1 18 21
M  V30 19 1 17 22
M  V30 20 1 20 23
M  V30 21 1 21 24
M  V30 22 1 25 26
M  V30 23 1 26 27
M  V30 24 1 26 28
M  V30 25 1 26 29
M  V30 26 1 25 30
M  V30 27 1 28 31
M  V30 28 1 29 32
M  V30 29 1 33 34
M  V30 30 1 34 35
M  V30 31 1 35 36
M  V30 32 1 34 37
M  V30 33 1 34 38
M  V30 34 1 35 39
M  V30 35 1 35 40
M  V30 36 1 41 42
M  V30 37 1 42 43
M  V30 38 1 42 46
M  V30 39 1 42 47
M  V30 40 1 43 44
M  V30 41 1 43 45
M  V30 42 1 43 48
M  V30 43 1 49 50
M  V30 44 1 49 51
M  V30 45 1 49 52
M  V30 46 1 49 53
M  V30 47 1 50 54
M  V30 48 1 50 55
M  V30 49 1 50 56
M  V30 50 1 57 58
M  V30 51 1 58 59
M  V30 52 1 59 60
M  V30 53 1 60 61
M  V30 54 1 61 62
M  V30 55 1 58 63
M  V30 56 1 58 64
M  V30 57 1 59 65
M  V30 58 1 59 66
M  V30 59 1 60 67
M  V30 60 1 60 68
M  V30 61 1 61 69
M  V30 62 1 61 70
M  V30 63 1 71 72
M  V30 64 1 72 73
M  V30 65 1 73 74
M  V30 66 1 74 75
M  V30 67 1 75 76
M  V30 68 1 72 77
M  V30 69 1 72 78
M  V30 70 1 73 79
M  V30 71 1 73 80
M  V30 72 1 74 81
M  V30 73 1 74 82
M  V30 74 1 75 83
M  V30 75 1 75 84
M  V30 76 1 85 86
M  V30 77 1 86 87
M  V30 78 1 87 88
M  V30 79 1 88 89
M  V30 80 1 89 90
M  V30 81 1 86 91
M  V30 82 1 86 92
M  V30 83 1 87 93
M  V30 84 1 87 94
M  V30 85 1 88 95
M  V30 86 1 88 96
M  V30 87 1 89 97
M  V30 88 1 89 98
M  V30 89 1 99 100
M  V30 90 1 100 101
M  V30 91 1 101 102
M  V30 92 1 102 103
M  V30 93 1 103 104
M  V30 94 1 100 105
M  V30 95 1 100 106
M  V30 96 1 101 107
M  V30 97 1 101 108
M  V30 98 1 102 109
M  V30 99 1 102 110
M  V30 100 1 103 111
M  V30 101 1 103 112
M  V30 102 2 1 33
M  V30 103 2 9 36
M  V30 104 2 3 41
M  V30 105 2 17 45
M  V30 106 2 4 57
M  V30 107 2 25 62
M  V30 108 2 12 71
M  V30 109 2 20 76
M  V30 110 2 11 85
M  V30 111 2 29 90
M  V30 112 2 21 99
M  V30 113 2 28 104
M  V30 END BOND
M  V30 END CTAB
M  END

$$$$
