
 OpenBabel06012111323D

 48 51  0  0  0  0  0  0  0  0999 V2000
   -0.2548   -7.9582   -0.1241 C   0  0  0  0  0  0  0  0  0  0  0  0
   -1.4707   -7.2697   -0.1451 C   0  0  0  0  0  0  0  0  0  0  0  0
    0.9088   -7.3496   -0.6209 C   0  0  0  0  0  0  0  0  0  0  0  0
    0.8427   -6.0466   -1.1382 C   0  0  0  0  0  0  0  0  0  0  0  0
   -0.3792   -5.3538   -1.1598 C   0  0  0  0  0  0  0  0  0  0  0  0
   -1.5346   -5.9725   -0.6606 C   0  0  0  0  0  0  0  0  0  0  0  0
   -0.4596   -3.9607   -1.7108 C   0  0  0  0  0  0  0  0  0  0  0  0
   -2.4824   -5.4484   -0.6719 H   0  0  0  0  0  0  0  0  0  0  0  0
    1.7404   -5.5761   -1.5219 H   0  0  0  0  0  0  0  0  0  0  0  0
   -0.2203   -8.9630    0.2784 H   0  0  0  0  0  0  0  0  0  0  0  0
   -2.3654   -7.7426    0.2389 H   0  0  0  0  0  0  0  0  0  0  0  0
    2.2201   -8.0785   -0.6037 C   0  0  0  0  0  0  0  0  0  0  0  0
    9.0219   -7.4633    0.1380 C   0  0  0  0  0  0  0  0  0  0  0  0
   10.2401   -6.6017    0.2888 C   0  0  0  0  0  0  0  0  0  0  0  0
   10.1250   -5.2032    0.2978 C   0  0  0  0  0  0  0  0  0  0  0  0
   11.2638   -4.3989    0.4380 C   0  0  0  0  0  0  0  0  0  0  0  0
   11.1191   -2.9065    0.4389 C   0  0  0  0  0  0  0  0  0  0  0  0
   12.5255   -4.9996    0.5733 C   0  0  0  0  0  0  0  0  0  0  0  0
   12.6430   -6.3926    0.5643 C   0  0  0  0  0  0  0  0  0  0  0  0
   11.5057   -7.1924    0.4213 C   0  0  0  0  0  0  0  0  0  0  0  0
   13.4144   -4.3916    0.6835 H   0  0  0  0  0  0  0  0  0  0  0  0
    9.1519   -4.7388    0.1943 H   0  0  0  0  0  0  0  0  0  0  0  0
    6.9407    7.0727   -0.0460 C   0  0  0  0  0  0  0  0  0  0  0  0
    5.5484    7.1764   -0.2034 C   0  0  0  0  0  0  0  0  0  0  0  0
    7.7306    8.2309    0.0459 C   0  0  0  0  0  0  0  0  0  0  0  0
    7.1207    9.4922   -0.0205 C   0  0  0  0  0  0  0  0  0  0  0  0
    5.7361    9.5962   -0.1770 C   0  0  0  0  0  0  0  0  0  0  0  0
    4.9513    8.4438   -0.2683 C   0  0  0  0  0  0  0  0  0  0  0  0
    3.8789    8.5362   -0.3895 H   0  0  0  0  0  0  0  0  0  0  0  0
    7.4069    6.0959    0.0046 H   0  0  0  0  0  0  0  0  0  0  0  0
    7.7194   10.3921    0.0492 H   0  0  0  0  0  0  0  0  0  0  0  0
    5.2704   10.5720   -0.2276 H   0  0  0  0  0  0  0  0  0  0  0  0
    4.6955    5.9459   -0.3026 C   0  0  0  0  0  0  0  0  0  0  0  0
    9.2182    8.1316    0.2140 C   0  0  0  0  0  0  0  0  0  0  0  0
   13.6176   -6.8523    0.6676 H   0  0  0  0  0  0  0  0  0  0  0  0
   11.6080   -8.2705    0.4150 H   0  0  0  0  0  0  0  0  0  0  0  0
    2.1818   -8.5483   -1.5643 H   0  0  0  0  0  0  0  0  0  0  0  0
    2.1149   -8.2571    0.4460 H   0  0  0  0  0  0  0  0  0  0  0  0
    9.1417   -8.0640    1.0153 H   0  0  0  0  0  0  0  0  0  0  0  0
    9.1079   -7.3634   -0.9239 H   0  0  0  0  0  0  0  0  0  0  0  0
   -1.4808   -3.7065   -1.5177 H   0  0  0  0  0  0  0  0  0  0  0  0
    0.1131   -4.2052   -2.5810 H   0  0  0  0  0  0  0  0  0  0  0  0
    3.9241    6.4706   -0.8266 H   0  0  0  0  0  0  0  0  0  0  0  0
    5.4004    5.4492    0.3309 H   0  0  0  0  0  0  0  0  0  0  0  0
    9.5307    8.5916    1.1281 H   0  0  0  0  0  0  0  0  0  0  0  0
    9.7584    8.6304   -0.5633 H   0  0  0  0  0  0  0  0  0  0  0  0
   11.9433   -2.8023   -0.2353 H   0  0  0  0  0  0  0  0  0  0  0  0
   10.3402   -3.0040    1.1661 H   0  0  0  0  0  0  0  0  0  0  0  0
  1  2  2  0  0  0  0
  1  3  1  0  0  0  0
  1 10  1  0  0  0  0
  2  6  1  0  0  0  0
  2 11  1  0  0  0  0
  3  4  2  0  0  0  0
  3 12  1  0  0  0  0
  4  5  1  0  0  0  0
  4  9  1  0  0  0  0
  5  6  2  0  0  0  0
  5  7  1  0  0  0  0
  6  8  1  0  0  0  0
  7 33  1  0  0  0  0
  7 41  1  0  0  0  0
  7 42  1  0  0  0  0
 12 13  1  0  0  0  0
 12 37  1  0  0  0  0
 12 38  1  0  0  0  0
 13 14  1  0  0  0  0
 13 39  1  0  0  0  0
 13 40  1  0  0  0  0
 14 15  2  0  0  0  0
 14 20  1  0  0  0  0
 15 16  1  0  0  0  0
 15 22  1  0  0  0  0
 16 17  1  0  0  0  0
 16 18  2  0  0  0  0
 17 47  1  0  0  0  0
 17 48  1  0  0  0  0
 18 19  1  0  0  0  0
 18 21  1  0  0  0  0
 19 20  2  0  0  0  0
 19 35  1  0  0  0  0
 20 36  1  0  0  0  0
 23 24  1  0  0  0  0
 23 25  2  0  0  0  0
 23 30  1  0  0  0  0
 24 33  1  0  0  0  0
 25 26  1  0  0  0  0
 25 34  1  0  0  0  0
 26 27  2  0  0  0  0
 26 31  1  0  0  0  0
 27 28  1  0  0  0  0
 27 32  1  0  0  0  0
 28 24  2  0  0  0  0
 28 29  1  0  0  0  0
 33 43  1  0  0  0  0
 33 44  1  0  0  0  0
 34 17  1  0  0  0  0
 34 45  1  0  0  0  0
 34 46  1  0  0  0  0
M  END
