12

C -2.365417 -0.454626 0.237164
C -1.683317 0.766874 0.237164
C -1.648617 -1.656126 0.237164
C 4.074600 -1.395500 1.007200
C 4.756700 -0.174000 1.007200
C 4.039900 1.027500 1.007200
H 4.567700 1.972400 1.007200
H -2.237917 1.696274 0.237164
H -3.447617 -0.470126 0.237164
H -2.176317 -2.601026 0.237164
H 4.629100 -2.325000 1.007200
H 5.838900 -0.158600 1.007200
