12

C -1.644997 -0.421819 0.334093
C -0.962897 0.799681 0.334093
C -0.928197 -1.623319 0.334093
C 2.271408 -1.477614 0.764588
C 2.953508 -0.256114 0.764588
C 2.236708 0.945386 0.764588
H 2.764508 1.890286 0.764588
H -1.517497 1.729081 0.334093
H -2.727197 -0.437319 0.334093
H -1.455897 -2.568219 0.334093
H 2.825908 -2.407114 0.764588
H 4.035708 -0.240714 0.764588
