12

C -0.516685 -0.375366 0.464687
C 0.165415 0.846134 0.464687
C 0.200115 -1.576866 0.464687
C 1.689053 -1.502333 0.693987
C 2.371153 -0.280833 0.693987
C 1.654353 0.920667 0.693987
H 2.182153 1.865567 0.693987
H -0.389185 1.775534 0.464687
H -1.598885 -0.390866 0.464687
H -0.327585 -2.521766 0.464687
H 2.243553 -2.431833 0.693987
H 3.453353 -0.265433 0.693987
