12

C -0.500300 -0.374546 0.467210
C 0.181800 0.846954 0.467210
C 0.216500 -1.576046 0.467210
C 1.815689 -1.496580 0.710966
C 2.497789 -0.275080 0.710966
C 1.780989 0.926420 0.710966
H 2.308789 1.871320 0.710966
H -0.372800 1.776354 0.467210
H -1.582500 -0.390046 0.467210
H -0.311200 -2.520946 0.467210
H 2.370189 -2.426080 0.710966
H 3.579989 -0.259680 0.710966
