12

C -0.500300 -0.374546 0.467210
C 0.181800 0.846954 0.467210
C 0.216500 -1.576046 0.467210
C 1.708528 -1.501358 0.696986
C 2.390628 -0.279858 0.696986
C 1.673828 0.921642 0.696986
H 2.201628 1.866542 0.696986
H -0.372800 1.776354 0.467210
H -1.582500 -0.390046 0.467210
H -0.311200 -2.520946 0.467210
H 2.263028 -2.430858 0.696986
H 3.472828 -0.264458 0.696986
