112

C -1.213436 -0.700577 10.854602
C 0.002427 0.019462 11.315711
C 1.228923 -0.712778 10.854602
C -0.015487 1.413355 10.854602
H -1.410645 -0.866019 9.809190
H 0.022807 0.032828 12.426454
H 1.377876 -0.850759 9.778299
H 0.769601 2.127094 11.071815
C -9.267224 -5.350434 -2.297179
C -9.228003 -5.345851 -3.783060
C -9.274268 -3.932204 -4.285605
C -8.046744 -6.068086 -4.271817
H -8.509166 -4.861187 -1.709698
H -10.127203 -5.866604 -4.176248
H -8.475133 -3.246845 -3.983413
H -7.812021 -6.193037 -5.321703
C 9.273402 -5.354001 -2.276999
C 9.284171 -5.358505 -3.760720
Cl 10.761147 -6.196905 -4.280455
C 8.064792 -6.037410 -4.270992
C 9.250041 -3.959313 -4.306610
H 10.076527 -4.905240 -1.711422
H 7.906972 -6.132340 -5.334992
H 8.380288 -3.376862 -4.021337
C -0.000000 10.708003 -2.276999
C -0.001484 10.719581 -3.760720
Cl -0.013897 12.417880 -4.280455
C 1.196154 10.003020 -4.270992
C -1.196154 9.990427 -4.306610
H -0.790201 11.179149 -1.711422
H 1.357276 9.913808 -5.334992
H -1.265695 8.945974 -4.021337
N -4.508827 -2.603173 5.473250
C -5.896125 -2.976734 5.496264
C -6.220029 -3.953332 4.369389
N -5.971832 -3.447839 3.084173
H -6.538746 -2.075431 5.419295
H -6.069471 -3.528492 6.445285
H -5.529846 -4.828545 4.542553
H -7.261299 -4.297060 4.475356
N 4.260368 -2.461354 5.906762
C 5.160196 -3.010039 4.880890
C 6.145658 -3.629606 4.073152
Cl 7.292960 -4.513091 5.022539
N 6.241957 -3.605425 2.670840
H 5.336775 -2.047673 4.447747
H 4.869152 -3.987222 5.205352
H 5.869085 -3.196428 3.134628
C 8.329538 -5.430045 5.000527
C 8.455984 -4.177249 5.844603
H 8.180334 -5.156789 3.976814
H 7.495027 -6.006733 5.341004
H 9.223858 -6.010887 5.088016
H 7.561588 -3.596442 5.757227
H 9.290492 -3.600530 5.504220
H 8.605115 -4.450570 6.868334
N -0.007744 4.547538 6.428705
C -0.421970 5.909984 6.159728
C 0.204365 6.406142 4.851609
C -0.235351 7.836758 4.575951
C 0.368614 8.352306 3.289905
N -0.007744 7.573820 2.148897
H 0.030096 6.537255 6.977125
H -1.514703 6.041854 6.146791
H 1.307088 6.443601 4.963404
H -0.084362 5.751999 4.015101
H 0.061765 8.446195 5.433608
H -1.331101 7.871408 4.477710
H 1.480625 8.394376 3.341388
H 0.025979 9.392994 3.129779
N -2.611813 -6.052748 -4.271405
C -1.605585 -7.073380 -4.485899
C -0.251053 -6.425852 -4.795084
C 0.799987 -7.503497 -5.018681
C 2.147691 -6.892218 -5.326103
N 2.629861 -6.052748 -4.271405
H -1.910832 -7.615789 -5.423229
H -1.518886 -7.786170 -3.651611
H -0.320707 -5.866771 -5.750320
H 0.054283 -5.762205 -3.972070
H 0.451572 -8.142469 -5.834518
H 0.900205 -8.113011 -4.107654
H 2.129944 -6.302417 -6.270989
H 2.879275 -7.708330 -5.483636
N -6.545629 0.759400 -4.296108
C -6.511371 1.901512 -5.187509
C -5.900356 3.112822 -4.474042
C -5.867530 4.307507 -5.416194
C -5.268919 5.518093 -4.737502
N -3.924793 5.298822 -4.296108
H -7.585697 2.169307 -5.387709
H -5.991623 1.701547 -6.136983
H -6.554600 3.410121 -3.629365
H -4.884481 2.878878 -4.121512
H -6.891983 4.496659 -5.747834
H -5.248627 4.065905 -6.293752
H -5.879917 5.850360 -3.867290
H -5.266612 6.361521 -5.454924
N 6.533516 0.752142 -4.288801
C 6.913666 2.133513 -4.506723
C 5.674728 2.982291 -4.813731
C 6.081820 4.430962 -5.040947
C 4.877693 5.291954 -5.346314
N 3.912679 5.291564 -4.288801
H 7.533300 2.138791 -5.445870
H 7.490035 2.566391 -3.674834
H 5.222600 2.640825 -5.767083
H 4.949722 2.916280 -3.988492
H 6.807016 4.447339 -5.858926
H 6.562213 4.824040 -4.131974
H 4.373038 4.980098 -6.289213
H 5.218212 6.333313 -5.506588
