112

C -2.393752 -1.382033 8.927153
C -1.177889 -0.661994 9.388263
C 0.048606 -1.394234 8.927153
C -1.195803 0.731899 8.927153
H -2.590961 -1.547474 7.881742
H -1.157509 -0.648628 10.499005
H 0.197560 -1.532214 7.850850
H -0.410715 1.445638 9.144366
C -8.554886 -4.939166 -1.133936
C -8.515665 -4.934582 -2.619817
C -8.561930 -3.520936 -3.122362
C -7.334406 -5.656818 -3.108574
H -7.796829 -4.449919 -0.546455
H -9.414865 -5.455336 -3.013005
H -7.762795 -2.835576 -2.820170
H -7.099683 -5.781768 -4.158460
C 7.612659 -4.347800 -1.594491
C 7.623428 -4.352304 -3.078212
Cl 9.100404 -5.190704 -3.597947
C 6.404048 -5.031209 -3.588484
C 7.589297 -2.953112 -3.624102
H 8.415783 -3.899039 -1.028914
H 6.246228 -5.126139 -4.652484
H 6.719544 -2.370661 -3.338829
C -0.121973 9.766367 -2.050013
C -0.123457 9.777945 -3.533734
Cl -0.135869 11.476244 -4.053469
C 1.074181 9.061385 -4.044006
C -1.318127 9.048792 -4.079624
H -0.912174 10.237513 -1.484436
H 1.235303 8.972173 -5.108006
H -1.387668 8.004338 -3.794351
N -4.956774 -2.861795 4.741756
C -6.344071 -3.235356 4.764771
C -6.667975 -4.211954 3.637895
N -6.419778 -3.706461 2.352679
H -6.986693 -2.334053 4.687802
H -6.517418 -3.787114 5.713792
H -5.977793 -5.087167 3.811060
H -7.709246 -4.555682 3.743863
N 4.260368 -2.461354 5.906762
C 5.160196 -3.010039 4.880890
C 6.145658 -3.629606 4.073152
Cl 7.292960 -4.513091 5.022539
N 6.241957 -3.605425 2.670840
H 5.336775 -2.047673 4.447747
H 4.869152 -3.987222 5.205352
H 5.869085 -3.196428 3.134628
C 8.329538 -5.430045 5.000527
C 8.455984 -4.177249 5.844603
H 8.180334 -5.156789 3.976814
H 7.495027 -6.006733 5.341004
H 9.223858 -6.010887 5.088016
H 7.561588 -3.596442 5.757227
H 9.290492 -3.600530 5.504220
H 8.605115 -4.450570 6.868334
N -0.008406 4.279498 6.807215
C -0.422632 5.641944 6.538238
C 0.203703 6.138102 5.230118
C -0.236013 7.568718 4.954460
C 0.367951 8.084266 3.668414
N -0.008406 7.305780 2.527406
H 0.029434 6.269215 7.355635
H -1.515365 5.773814 6.525300
H 1.306426 6.175561 5.341914
H -0.085024 5.483959 4.393610
H 0.061103 8.178155 5.812117
H -1.331763 7.603368 4.856220
H 1.479963 8.126336 3.719898
H 0.025317 9.124954 3.508288
N -2.611813 -6.052748 -4.271405
C -1.605585 -7.073380 -4.485899
C -0.251053 -6.425852 -4.795084
C 0.799987 -7.503497 -5.018681
C 2.147691 -6.892218 -5.326103
N 2.629861 -6.052748 -4.271405
H -1.910832 -7.615789 -5.423229
H -1.518886 -7.786170 -3.651611
H -0.320707 -5.866771 -5.750320
H 0.054283 -5.762205 -3.972070
H 0.451572 -8.142469 -5.834518
H 0.900205 -8.113011 -4.107654
H 2.129944 -6.302417 -6.270989
H 2.879275 -7.708330 -5.483636
N -6.545629 0.759400 -4.296108
C -6.511371 1.901512 -5.187509
C -5.900356 3.112822 -4.474042
C -5.867530 4.307507 -5.416194
C -5.268919 5.518093 -4.737502
N -3.924793 5.298822 -4.296108
H -7.585697 2.169307 -5.387709
H -5.991623 1.701547 -6.136983
H -6.554600 3.410121 -3.629365
H -4.884481 2.878878 -4.121512
H -6.891983 4.496659 -5.747834
H -5.248627 4.065905 -6.293752
H -5.879917 5.850360 -3.867290
H -5.266612 6.361521 -5.454924
N 6.040425 0.416129 -3.843132
C 6.420576 1.797500 -4.061054
C 5.181638 2.646278 -4.368062
C 5.588730 4.094949 -4.595278
C 4.384602 4.955941 -4.900645
N 3.419589 4.955551 -3.843132
H 7.040209 1.802777 -5.000202
H 6.996945 2.230378 -3.229166
H 4.729509 2.304812 -5.321415
H 4.456632 2.580267 -3.542823
H 6.313926 4.111326 -5.413257
H 6.069123 4.488027 -3.686305
H 3.879947 4.644085 -5.843545
H 4.725122 5.997300 -5.060919
