112

C -1.544628 -0.424242 4.622131
C -0.328766 0.295797 5.083240
C 0.897730 -0.436443 4.622131
C -0.346680 1.689690 4.622131
H -1.741837 -0.589683 3.576720
H -0.308386 0.309163 6.193983
H 1.046684 -0.574423 3.545828
H 0.438409 2.403429 4.839344
C -6.119681 -3.564792 0.998841
C -6.080460 -3.560208 -0.487040
C -6.126724 -2.146562 -0.989585
C -4.899201 -4.282444 -0.975798
H -5.361623 -3.075545 1.586322
H -6.979660 -4.080962 -0.880229
H -5.327590 -1.461202 -0.687393
H -4.664478 -4.407394 -2.025683
C 4.293082 -2.674289 -0.167017
C 4.303851 -2.678793 -1.650737
Cl 5.780827 -3.517193 -2.170473
C 3.084472 -3.357698 -2.161009
C 4.269720 -1.279601 -2.196628
H 5.096207 -2.225528 0.398560
H 2.926651 -3.452628 -3.225009
H 3.399968 -0.697150 -1.911355
C -0.265544 6.237338 -0.881443
C -0.267029 6.248916 -2.365164
Cl -0.279441 7.947215 -2.884899
C 0.930610 5.532355 -2.875436
C -1.461699 5.519762 -2.911054
H -1.055745 6.708484 -0.315866
H 1.091732 5.443143 -3.939436
H -1.531240 4.475309 -2.625781
N -3.110604 -1.680491 4.488160
C -4.497902 -2.054052 4.511174
C -4.821806 -3.030650 3.384299
N -4.573609 -2.525157 2.099083
H -5.140523 -1.152749 4.434205
H -4.671248 -2.605810 5.460196
H -4.131623 -3.905863 3.557464
H -5.863076 -3.374378 3.490266
N 2.862845 -1.578744 5.006364
C 3.762673 -2.127429 3.980492
C 4.748135 -2.746996 3.172753
Cl 5.895438 -3.630481 4.122141
N 4.844435 -2.722816 1.770442
H 3.939252 -1.165063 3.547349
H 3.471629 -3.104612 4.304954
H 4.471562 -2.313818 2.234229
C 6.932015 -4.547435 4.100128
C 7.058461 -3.294640 4.944204
H 6.782811 -4.274180 3.076415
H 6.097504 -5.124124 4.440606
H 7.826335 -5.128278 4.187618
H 6.164065 -2.713832 4.856828
H 7.892969 -2.717921 4.603822
H 7.207592 -3.567961 5.967936
N 0.007463 3.427116 5.267739
C -0.406763 4.789561 4.998762
C 0.219572 5.285719 3.690642
C -0.220144 6.716335 3.414985
C 0.383821 7.231883 2.128939
N 0.007463 6.453397 0.987931
H 0.045303 5.416833 5.816159
H -1.499496 4.921432 4.985825
H 1.322295 5.323178 3.802438
H -0.069155 4.631576 2.854135
H 0.076972 7.325773 4.272642
H -1.315894 6.750986 3.316744
H 1.495832 7.273953 2.180422
H 0.041186 8.272571 1.968813
N -3.500734 -4.020957 -2.647453
C -2.494507 -5.041589 -2.861948
C -1.139974 -4.394061 -3.171133
C -0.088934 -5.471706 -3.394730
C 1.258770 -4.860426 -3.702152
N 1.740939 -4.020957 -2.647453
H -2.799753 -5.583998 -3.799278
H -2.407808 -5.754379 -2.027659
H -1.209628 -3.834979 -4.126369
H -0.834638 -3.730413 -2.348118
H -0.437349 -6.110677 -4.210566
H 0.011284 -6.081220 -2.483703
H 1.241023 -4.270625 -4.647038
H 1.990354 -5.676538 -3.859685
N -5.058456 -0.131106 -3.079920
C -5.024198 1.011006 -3.971321
C -4.413184 2.222316 -3.257854
C -4.380358 3.417000 -4.200006
C -3.781746 4.627586 -3.521314
N -2.437620 4.408316 -3.079920
H -6.098524 1.278800 -4.171521
H -4.504450 0.811041 -4.920795
H -5.067427 2.519614 -2.413177
H -3.397308 1.988371 -2.905324
H -5.404810 3.606153 -4.531646
H -3.761454 3.175398 -5.077564
H -4.392744 4.959854 -2.651102
H -3.779439 5.471014 -4.238736
N 5.013815 0.048138 -3.081458
C 5.393965 1.429509 -3.299380
C 4.155027 2.278287 -3.606388
C 4.562119 3.726958 -3.833604
C 3.357992 4.587950 -4.138971
N 2.392978 4.587560 -3.081458
H 6.013599 1.434786 -4.238528
H 5.970334 1.862387 -2.467492
H 3.702899 1.936821 -4.559741
H 3.430021 2.212276 -2.781149
H 5.287315 3.743335 -4.651583
H 5.042513 4.120036 -2.924631
H 2.853337 4.276094 -5.081871
H 3.698512 5.629309 -4.299245
