112

C -1.593985 -0.522762 4.831734
C -0.378123 0.197277 5.292843
C 0.848373 -0.534963 4.831734
C -0.396037 1.591170 4.831734
H -1.791194 -0.688204 3.786323
H -0.357743 0.210643 6.403586
H 0.997327 -0.672944 3.755431
H 0.389052 2.304909 5.048947
C -5.641857 -3.104013 0.185952
C -5.602636 -3.099430 -1.299928
C -5.648901 -1.685783 -1.802474
C -4.421378 -3.821665 -1.788686
H -4.883800 -2.614766 0.773433
H -6.501837 -3.620183 -1.693117
H -4.849767 -1.000423 -1.500282
H -4.186654 -3.946615 -2.838572
C 4.908149 -2.778066 -0.189211
C 4.918918 -2.782569 -1.672932
Cl 6.395894 -3.620969 -2.192667
C 3.699539 -3.461474 -2.183204
C 4.884787 -1.383378 -2.218822
H 5.711274 -2.329304 0.376366
H 3.541718 -3.556404 -3.247204
H 4.015035 -0.800927 -1.933549
C -0.164110 5.743587 -0.617229
C -0.165594 5.755165 -2.100949
Cl -0.178006 7.453464 -2.620685
C 1.032044 5.038604 -2.611221
C -1.360264 5.026011 -2.646839
H -0.954311 6.214733 -0.051651
H 1.193166 4.949393 -3.675221
H -1.429805 3.981558 -2.361566
N -3.018807 -1.591962 4.398493
C -4.406105 -1.965523 4.421507
C -4.730008 -2.942121 3.294632
N -4.481812 -2.436628 2.009416
H -5.048726 -1.064221 4.344538
H -4.579451 -2.517281 5.370529
H -4.039826 -3.817335 3.467797
H -5.771279 -3.285850 3.400599
N 2.737617 -1.498828 4.912268
C 3.637446 -2.047513 3.886396
C 4.622908 -2.667079 3.078657
Cl 5.770210 -3.550564 4.028045
N 4.719207 -2.642899 1.676346
H 3.814025 -1.085147 3.453253
H 3.346401 -3.024696 4.210858
H 4.346335 -2.233902 2.140133
C 6.806788 -4.467519 4.006032
C 6.933234 -3.214723 4.850108
H 6.657584 -4.194263 2.982319
H 5.972276 -5.044207 4.346510
H 7.701108 -5.048361 4.093522
H 6.038837 -2.633916 4.762732
H 7.767742 -2.638004 4.509726
H 7.082365 -3.488044 5.873840
N 0.007463 3.427116 5.267739
C -0.406763 4.789561 4.998762
C 0.219572 5.285719 3.690642
C -0.220144 6.716335 3.414985
C 0.383821 7.231883 2.128939
N 0.007463 6.453397 0.987931
H 0.045303 5.416833 5.816159
H -1.499496 4.921432 4.985825
H 1.322295 5.323178 3.802438
H -0.069155 4.631576 2.854135
H 0.076972 7.325773 4.272642
H -1.315894 6.750986 3.316744
H 1.495832 7.273953 2.180422
H 0.041186 8.272571 1.968813
N -3.200273 -3.477081 -2.529183
C -2.194046 -4.497713 -2.743677
C -0.839514 -3.850185 -3.052862
C 0.211526 -4.927830 -3.276459
C 1.559230 -4.316551 -3.583881
N 2.041400 -3.477081 -2.529183
H -2.499293 -5.040122 -3.681008
H -2.107347 -5.210503 -1.909389
H -0.909168 -3.291104 -4.008099
H -0.534178 -3.186538 -2.229848
H -0.136889 -5.566802 -4.092296
H 0.311745 -5.537344 -2.365433
H 1.541483 -3.726750 -4.528768
H 2.290814 -5.132663 -3.741415
N -5.256567 -0.516305 -2.984852
C -5.222309 0.625807 -3.876254
C -4.611294 1.837117 -3.162787
C -4.578468 3.031801 -4.104939
C -3.979857 4.242388 -3.426247
N -2.635730 4.023117 -2.984852
H -6.296635 0.893602 -4.076454
H -4.702561 0.425842 -4.825727
H -5.265538 2.134416 -2.318110
H -3.595418 1.603173 -2.810257
H -5.602921 3.220954 -4.436579
H -3.959564 2.790200 -4.982497
H -4.590855 4.574655 -2.556035
H -3.977549 5.085816 -4.143669
N 4.938161 0.072502 -3.056305
C 5.318311 1.453873 -3.274227
C 4.079373 2.302651 -3.581235
C 4.486465 3.751322 -3.808451
C 3.282338 4.612314 -4.113818
N 2.317324 4.611924 -3.056305
H 5.937945 1.459151 -4.213375
H 5.894680 1.886751 -2.442339
H 3.627244 1.961185 -4.534588
H 3.354367 2.236641 -2.755996
H 5.211661 3.767700 -4.626430
H 4.966858 4.144400 -2.899478
H 2.777683 4.300458 -5.056718
H 3.622857 5.653673 -4.274092
