112

C -2.393752 -1.382033 8.927153
C -1.177889 -0.661994 9.388263
C 0.048606 -1.394234 8.927153
C -1.195803 0.731899 8.927153
H -2.590961 -1.547474 7.881742
H -1.157509 -0.648628 10.499005
H 0.197560 -1.532214 7.850850
H -0.410715 1.445638 9.144366
C -8.313859 -4.959373 -1.193284
C -8.274638 -4.954789 -2.679164
C -8.320903 -3.541143 -3.181709
C -7.093379 -5.677025 -3.167922
H -7.555802 -4.470126 -0.605803
H -9.173838 -5.475543 -3.072353
H -7.521768 -2.855783 -2.879517
H -6.858656 -5.801975 -4.217808
C 5.121630 -2.821026 -0.372828
C 5.132399 -2.825530 -1.856549
Cl 6.609375 -3.663930 -2.376284
C 3.913020 -3.504435 -2.366821
C 5.098269 -1.426338 -2.402439
H 5.924755 -2.372265 0.192749
H 3.755200 -3.599365 -3.430821
H 4.228516 -0.843887 -2.117166
C -0.163124 6.300489 -0.844779
C -0.164608 6.312067 -2.328500
Cl -0.177021 8.010366 -2.848235
C 1.033030 5.595507 -2.838772
C -1.359278 5.582914 -2.874390
H -0.953325 6.771635 -0.279202
H 1.194152 5.506295 -3.902772
H -1.428820 4.538460 -2.589117
N -4.956774 -2.861795 4.741756
C -6.344071 -3.235356 4.764771
C -6.667975 -4.211954 3.637895
N -6.419778 -3.706461 2.352679
H -6.986693 -2.334053 4.687802
H -6.517418 -3.787114 5.713792
H -5.977793 -5.087167 3.811060
H -7.709246 -4.555682 3.743863
N 3.138506 -1.746750 5.132820
C 4.038334 -2.295435 4.106948
C 5.023796 -2.915002 3.299210
Cl 6.171099 -3.798487 4.248597
N 5.120096 -2.890821 1.896898
H 4.214914 -1.333069 3.673805
H 3.747290 -3.272618 4.431410
H 4.747224 -2.481824 2.360685
C 7.207676 -4.715441 4.226585
C 7.334123 -3.462645 5.070660
H 7.058472 -4.442185 3.202872
H 6.373165 -5.292130 4.567062
H 8.101996 -5.296283 4.314074
H 6.439726 -2.881838 4.983284
H 8.168631 -2.885926 4.730278
H 7.483253 -3.735966 6.094392
N -0.005608 3.512108 6.190883
C -0.419835 4.874554 5.921906
C 0.206500 5.370711 4.613786
C -0.233216 6.801327 4.338129
C 0.370749 7.316876 3.052083
N -0.005608 6.538389 1.911075
H 0.032231 5.501825 6.739303
H -1.512568 5.006424 5.908968
H 1.309223 5.408171 4.725582
H -0.082227 4.716569 3.777279
H 0.063900 7.410765 5.195785
H -1.328966 6.835978 4.239888
H 1.482760 7.358945 3.103566
H 0.028114 8.357564 2.891957
N -3.539690 -4.815396 -3.279691
C -2.533463 -5.836028 -3.494185
C -1.178931 -5.188500 -3.803370
C -0.127891 -6.266145 -4.026967
C 1.219813 -5.654865 -4.334389
N 1.701983 -4.815396 -3.279691
H -2.838709 -6.378437 -4.431515
H -2.446764 -6.548818 -2.659897
H -1.248585 -4.629419 -4.758606
H -0.873595 -4.524852 -2.980356
H -0.476306 -6.905117 -4.842804
H -0.027672 -6.875659 -3.115940
H 1.202066 -5.065065 -5.279276
H 1.951397 -6.470977 -4.491922
N -5.485651 0.115189 -3.413340
C -5.451393 1.257301 -4.304741
C -4.840378 2.468610 -3.591274
C -4.807552 3.663295 -4.533426
C -4.208941 4.873881 -3.854734
N -2.864814 4.654611 -3.413340
H -6.525719 1.525095 -4.504941
H -4.931645 1.057336 -5.254215
H -5.494622 2.765909 -2.746597
H -3.824503 2.234666 -3.238744
H -5.832005 3.852448 -4.865066
H -4.188648 3.421693 -5.410984
H -4.819939 5.206148 -2.984522
H -4.206633 5.717309 -4.572156
N 5.888365 0.571698 -3.814283
C 6.268515 1.953069 -4.032205
C 5.029577 2.801847 -4.339213
C 5.436669 4.250518 -4.566429
C 4.232542 5.111510 -4.871796
N 3.267528 5.111120 -3.814283
H 6.888149 1.958347 -4.971352
H 6.844884 2.385947 -3.200316
H 4.577448 2.460381 -5.292566
H 4.304571 2.735837 -3.513974
H 6.161865 4.266896 -5.384408
H 5.917062 4.643596 -3.657456
H 3.727887 4.799654 -5.814695
H 4.573061 6.152869 -5.032070
