112

C -1.442383 -0.707058 4.816116
C -0.226521 0.012982 5.277225
C 0.999975 -0.719258 4.816116
C -0.244435 1.406875 4.816116
H -1.639593 -0.872499 3.770704
H -0.206141 0.026348 6.387968
H 1.148929 -0.857239 3.739813
H 0.540653 2.120613 5.033329
C -5.625038 -3.015279 0.077596
C -5.585817 -3.010696 -1.408284
C -5.632082 -1.597049 -1.910830
C -4.404559 -3.732932 -1.897042
H -4.866981 -2.526032 0.665077
H -6.485018 -3.531449 -1.801473
H -4.832948 -0.911690 -1.608638
H -4.169835 -3.857882 -2.946928
C 5.076908 -2.588255 -0.114596
C 5.087677 -2.592758 -1.598316
Cl 6.564653 -3.431159 -2.118052
C 3.868298 -3.271663 -2.108588
C 5.053546 -1.193567 -2.144206
H 5.880033 -2.139494 0.450982
H 3.710477 -3.366593 -3.172588
H 4.183794 -0.611116 -1.858933
C -0.308178 5.673988 -0.528392
C -0.309662 5.685566 -2.012113
Cl -0.322074 7.383865 -2.531848
C 0.887976 4.969006 -2.522385
C -1.504332 4.956413 -2.558003
H -1.098379 6.145134 0.037185
H 1.049098 4.879794 -3.586385
H -1.573873 3.911959 -2.272730
N -3.272313 -1.731429 4.445818
C -4.659611 -2.104990 4.468833
C -4.983514 -3.081589 3.341957
N -4.735318 -2.576095 2.056741
H -5.302232 -1.203688 4.391864
H -4.832957 -2.656748 5.417854
H -4.293332 -3.956802 3.515122
H -6.024785 -3.425317 3.447925
N 2.739589 -1.500238 4.892802
C 3.639417 -2.048923 3.866930
C 4.624879 -2.668490 3.059192
Cl 5.772182 -3.551975 4.008579
N 4.721179 -2.644310 1.656880
H 3.815996 -1.086557 3.433787
H 3.348373 -3.026106 4.191392
H 4.348306 -2.235312 2.120667
C 6.808759 -4.468929 3.986567
C 6.935205 -3.216133 4.830642
H 6.659555 -4.195673 2.962854
H 5.974248 -5.045618 4.327044
H 7.703079 -5.049772 4.074056
H 6.040809 -2.635326 4.743266
H 7.769713 -2.639414 4.490260
H 7.084336 -3.489454 5.854374
N 0.013897 3.315409 5.197135
C -0.400329 4.677855 4.928158
C 0.226006 5.174013 3.620038
C -0.213710 6.604629 3.344380
C 0.390255 7.120177 2.058334
N 0.013897 6.341691 0.917326
H 0.051737 5.305126 5.745554
H -1.493062 4.809725 4.915220
H 1.328729 5.211472 3.731833
H -0.062721 4.519870 2.783530
H 0.083406 7.214066 4.202037
H -1.309460 6.639279 3.246140
H 1.502266 7.162247 2.109818
H 0.047620 8.160865 1.898208
N -2.899140 -3.943612 -2.914804
C -1.892913 -4.964244 -3.129299
C -0.538381 -4.316716 -3.438484
C 0.512660 -5.394360 -3.662080
C 1.860364 -4.783081 -3.969502
N 2.342533 -3.943612 -2.914804
H -2.198159 -5.506653 -4.066629
H -1.806214 -5.677034 -2.295010
H -0.608034 -3.757634 -4.393720
H -0.233044 -3.653068 -2.615469
H 0.164245 -6.033332 -4.477917
H 0.612878 -6.003875 -2.751054
H 1.842616 -4.193280 -4.914389
H 2.591948 -5.599193 -4.127036
N -5.429673 -0.529190 -3.214833
C -5.395414 0.612922 -4.106235
C -4.784400 1.824231 -3.392768
C -4.751574 3.018916 -4.334920
C -4.152962 4.229502 -3.656228
N -2.808836 4.010232 -3.214833
H -6.469741 0.880716 -4.306435
H -4.875666 0.412957 -5.055708
H -5.438643 2.121530 -2.548091
H -3.768524 1.590287 -3.040238
H -5.776026 3.208069 -4.666560
H -4.132670 2.777314 -5.212478
H -4.763960 4.561769 -2.786015
H -4.150655 5.072930 -4.373650
N 5.087948 -0.003351 -3.083617
C 5.468099 1.378020 -3.301539
C 4.229161 2.226797 -3.608546
C 4.636253 3.675469 -3.835763
C 3.432125 4.536460 -4.141129
N 2.467112 4.536071 -3.083617
H 6.087732 1.383297 -4.240686
H 6.044468 1.810898 -2.469650
H 3.777032 1.885332 -4.561899
H 3.504155 2.160787 -2.783307
H 5.361449 3.691846 -4.653742
H 5.116646 4.068546 -2.926789
H 2.927470 4.224605 -5.084029
H 3.772645 5.577819 -4.301403
