112

C -1.618569 -0.634621 4.805170
C -0.402707 0.085419 5.266279
C 0.823789 -0.646821 4.805170
C -0.420621 1.479312 4.805170
H -1.815778 -0.800062 3.759758
H -0.382326 0.098785 6.377022
H 0.972743 -0.784802 3.728867
H 0.364468 2.193051 5.022383
C -5.645597 -3.123741 0.210043
C -5.606376 -3.119158 -1.275837
C -5.652641 -1.705511 -1.778383
C -4.425117 -3.841394 -1.764595
H -4.887540 -2.634494 0.797524
H -6.505577 -3.639911 -1.669026
H -4.853506 -1.020152 -1.476191
H -4.190394 -3.966344 -2.814481
C 4.900655 -2.772705 -0.115219
C 4.911424 -2.777208 -1.598940
Cl 6.388400 -3.615608 -2.118676
C 3.692045 -3.456113 -2.109212
C 4.877293 -1.378017 -2.144830
H 5.703780 -2.323943 0.450358
H 3.534225 -3.551043 -3.173212
H 4.007541 -0.795566 -1.859557
C -0.164110 5.743587 -0.617229
C -0.165594 5.755165 -2.100949
Cl -0.178006 7.453464 -2.620685
C 1.032044 5.038604 -2.611221
C -1.360264 5.026011 -2.646839
H -0.954311 6.214733 -0.051651
H 1.193166 4.949393 -3.675221
H -1.429805 3.981558 -2.361566
N -3.018807 -1.591962 4.398493
C -4.406105 -1.965523 4.421507
C -4.730008 -2.942121 3.294632
N -4.481812 -2.436628 2.009416
H -5.048726 -1.064221 4.344538
H -4.579451 -2.517281 5.370529
H -4.039826 -3.817335 3.467797
H -5.771279 -3.285850 3.400599
N 2.737617 -1.498828 4.912268
C 3.637446 -2.047513 3.886396
C 4.622908 -2.667079 3.078657
Cl 5.770210 -3.550564 4.028045
N 4.719207 -2.642899 1.676346
H 3.814025 -1.085147 3.453253
H 3.346401 -3.024696 4.210858
H 4.346335 -2.233902 2.140133
C 6.806788 -4.467519 4.006032
C 6.933234 -3.214723 4.850108
H 6.657584 -4.194263 2.982319
H 5.972276 -5.044207 4.346510
H 7.701108 -5.048361 4.093522
H 6.038837 -2.633916 4.762732
H 7.767742 -2.638004 4.509726
H 7.082365 -3.488044 5.873840
N 0.007463 3.427116 5.267739
C -0.406763 4.789561 4.998762
C 0.219572 5.285719 3.690642
C -0.220144 6.716335 3.414985
C 0.383821 7.231883 2.128939
N 0.007463 6.453397 0.987931
H 0.045303 5.416833 5.816159
H -1.499496 4.921432 4.985825
H 1.322295 5.323178 3.802438
H -0.069155 4.631576 2.854135
H 0.076972 7.325773 4.272642
H -1.315894 6.750986 3.316744
H 1.495832 7.273953 2.180422
H 0.041186 8.272571 1.968813
N -3.037741 -3.407118 -2.613681
C -2.031514 -4.427750 -2.828176
C -0.676982 -3.780222 -3.137361
C 0.374058 -4.857867 -3.360957
C 1.721762 -4.246587 -3.668379
N 2.203932 -3.407118 -2.613681
H -2.336760 -4.970159 -3.765506
H -1.944815 -5.140540 -1.993887
H -0.746635 -3.221140 -4.092597
H -0.371646 -3.116574 -2.314346
H 0.025643 -5.496838 -4.176794
H 0.474277 -5.467381 -2.449931
H 1.704015 -3.656786 -4.613266
H 2.453346 -5.062699 -3.825913
N -5.457121 -0.673999 -3.038002
C -5.422862 0.468113 -3.929403
C -4.811848 1.679422 -3.215936
C -4.779022 2.874107 -4.158088
C -4.180410 4.084693 -3.479396
N -2.836284 3.865423 -3.038002
H -6.497189 0.735907 -4.129603
H -4.903115 0.268147 -4.878876
H -5.466092 1.976721 -2.371259
H -3.795972 1.445478 -2.863406
H -5.803475 3.063260 -4.489728
H -4.160118 2.632505 -5.035646
H -4.791409 4.416960 -2.609184
H -4.178103 4.928121 -4.196818
N 4.938161 0.072502 -3.056305
C 5.318311 1.453873 -3.274227
C 4.079373 2.302651 -3.581235
C 4.486465 3.751322 -3.808451
C 3.282338 4.612314 -4.113818
N 2.317324 4.611924 -3.056305
H 5.937945 1.459151 -4.213375
H 5.894680 1.886751 -2.442339
H 3.627244 1.961185 -4.534588
H 3.354367 2.236641 -2.755996
H 5.211661 3.767700 -4.626430
H 4.966858 4.144400 -2.899478
H 2.777683 4.300458 -5.056718
H 3.622857 5.653673 -4.274092
