112

C -1.563780 -0.518202 4.587217
C -0.347918 0.201837 5.048326
C 0.878578 -0.530402 4.587217
C -0.365832 1.595730 4.587217
H -1.760989 -0.683643 3.541805
H -0.327538 0.215203 6.159068
H 1.027532 -0.668383 3.510913
H 0.419257 2.309469 4.804430
C -5.581569 -3.123651 0.384272
C -5.542348 -3.119068 -1.101608
C -5.588613 -1.705421 -1.604153
C -4.361090 -3.841303 -1.590366
H -4.823512 -2.634404 0.971753
H -6.441549 -3.639821 -1.494797
H -4.789479 -1.020061 -1.301961
H -4.126366 -3.966254 -2.640252
C 4.908149 -2.778066 -0.189211
C 4.918918 -2.782569 -1.672932
Cl 6.395894 -3.620969 -2.192667
C 3.699539 -3.461474 -2.183204
C 4.884787 -1.383378 -2.218822
H 5.711274 -2.329304 0.376366
H 3.541718 -3.556404 -3.247204
H 4.015035 -0.800927 -1.933549
C -0.224489 6.285476 -0.829856
C -0.225974 6.297054 -2.313577
Cl -0.238386 7.995353 -2.833312
C 0.971665 5.580493 -2.823849
C -1.420644 5.567900 -2.859467
H -1.014690 6.756622 -0.264279
H 1.132787 5.491281 -3.887849
H -1.490185 4.523447 -2.574194
N -2.953196 -1.554216 4.501626
C -4.340494 -1.927777 4.524641
C -4.664397 -2.904375 3.397765
N -4.416201 -2.398882 2.112549
H -4.983115 -1.026474 4.447672
H -4.513840 -2.479535 5.473662
H -3.974215 -3.779588 3.570930
H -5.705668 -3.248103 3.503733
N 2.737617 -1.498828 4.912268
C 3.637446 -2.047513 3.886396
C 4.622908 -2.667079 3.078657
Cl 5.770210 -3.550564 4.028045
N 4.719207 -2.642899 1.676346
H 3.814025 -1.085147 3.453253
H 3.346401 -3.024696 4.210858
H 4.346335 -2.233902 2.140133
C 6.806788 -4.467519 4.006032
C 6.933234 -3.214723 4.850108
H 6.657584 -4.194263 2.982319
H 5.972276 -5.044207 4.346510
H 7.701108 -5.048361 4.093522
H 6.038837 -2.633916 4.762732
H 7.767742 -2.638004 4.509726
H 7.082365 -3.488044 5.873840
N 0.007463 3.427116 5.267739
C -0.406763 4.789561 4.998762
C 0.219572 5.285719 3.690642
C -0.220144 6.716335 3.414985
C 0.383821 7.231883 2.128939
N 0.007463 6.453397 0.987931
H 0.045303 5.416833 5.816159
H -1.499496 4.921432 4.985825
H 1.322295 5.323178 3.802438
H -0.069155 4.631576 2.854135
H 0.076972 7.325773 4.272642
H -1.315894 6.750986 3.316744
H 1.495832 7.273953 2.180422
H 0.041186 8.272571 1.968813
N -3.200273 -3.477081 -2.529183
C -2.194046 -4.497713 -2.743677
C -0.839514 -3.850185 -3.052862
C 0.211526 -4.927830 -3.276459
C 1.559230 -4.316551 -3.583881
N 2.041400 -3.477081 -2.529183
H -2.499293 -5.040122 -3.681008
H -2.107347 -5.210503 -1.909389
H -0.909168 -3.291104 -4.008099
H -0.534178 -3.186538 -2.229848
H -0.136889 -5.566802 -4.092296
H 0.311745 -5.537344 -2.365433
H 1.541483 -3.726750 -4.528768
H 2.290814 -5.132663 -3.741415
N -5.256567 -0.516305 -2.984852
C -5.222309 0.625807 -3.876254
C -4.611294 1.837117 -3.162787
C -4.578468 3.031801 -4.104939
C -3.979857 4.242388 -3.426247
N -2.635730 4.023117 -2.984852
H -6.296635 0.893602 -4.076454
H -4.702561 0.425842 -4.825727
H -5.265538 2.134416 -2.318110
H -3.595418 1.603173 -2.810257
H -5.602921 3.220954 -4.436579
H -3.959564 2.790200 -4.982497
H -4.590855 4.574655 -2.556035
H -3.977549 5.085816 -4.143669
N 4.938161 0.072502 -3.056305
C 5.318311 1.453873 -3.274227
C 4.079373 2.302651 -3.581235
C 4.486465 3.751322 -3.808451
C 3.282338 4.612314 -4.113818
N 2.317324 4.611924 -3.056305
H 5.937945 1.459151 -4.213375
H 5.894680 1.886751 -2.442339
H 3.627244 1.961185 -4.534588
H 3.354367 2.236641 -2.755996
H 5.211661 3.767700 -4.626430
H 4.966858 4.144400 -2.899478
H 2.777683 4.300458 -5.056718
H 3.622857 5.653673 -4.274092
