112

C -1.746208 -0.300925 6.861668
C -0.530346 0.419115 7.322777
C 0.696150 -0.313125 6.861668
C -0.548260 1.813008 6.861668
H -1.943417 -0.466366 5.816257
H -0.509966 0.432481 8.433520
H 0.845104 -0.451106 5.785365
H 0.236829 2.526746 7.078881
C -7.112444 -4.199706 0.180226
C -7.073223 -4.195122 -1.305654
C -7.119488 -2.781476 -1.808200
C -5.891965 -4.917358 -1.794412
H -6.354387 -3.710459 0.767707
H -7.972424 -4.715876 -1.698843
H -6.320354 -2.096116 -1.506007
H -5.657241 -5.042308 -2.844298
C 4.433926 -2.445189 -0.277221
C 4.444695 -2.449692 -1.760941
Cl 5.921671 -3.288092 -2.280677
C 3.225316 -3.128597 -2.271213
C 4.410564 -1.050501 -2.306831
H 5.237051 -1.996427 0.288357
H 3.067495 -3.223527 -3.335213
H 3.540812 -0.468050 -2.021558
C -0.163124 6.300489 -0.844779
C -0.164608 6.312067 -2.328500
Cl -0.177021 8.010366 -2.848235
C 1.033030 5.595507 -2.838772
C -1.359278 5.582914 -2.874390
H -0.953325 6.771635 -0.279202
H 1.194152 5.506295 -3.902772
H -1.428820 4.538460 -2.589117
N -3.637699 -2.087348 4.500403
C -5.024996 -2.460909 4.523418
C -5.348900 -3.437507 3.396542
N -5.100703 -2.932014 2.111327
H -5.667618 -1.559606 4.446449
H -5.198342 -3.012667 5.472439
H -4.658718 -4.312720 3.569707
H -6.390170 -3.781235 3.502510
N 2.989872 -1.660954 5.027798
C 3.889700 -2.209639 4.001926
C 4.875162 -2.829206 3.194188
Cl 6.022464 -3.712691 4.143575
N 4.971461 -2.805026 1.791876
H 4.066279 -1.247273 3.568783
H 3.598656 -3.186822 4.326388
H 4.598589 -2.396028 2.255664
C 7.059042 -4.629645 4.121563
C 7.185488 -3.376850 4.965639
H 6.909838 -4.356390 3.097850
H 6.224531 -5.206334 4.462040
H 7.953362 -5.210488 4.209053
H 6.291092 -2.796042 4.878263
H 8.019996 -2.800131 4.625256
H 7.334619 -3.650171 5.989370
N 0.007249 2.320245 5.297206
C -0.406978 3.682690 5.028229
C 0.219357 4.178848 3.720110
C -0.220359 5.609464 3.444452
C 0.383606 6.125013 2.158406
N 0.007249 5.346526 1.017398
H 0.045088 4.309962 5.845626
H -1.499711 3.814561 5.015292
H 1.322080 4.216308 3.831905
H -0.069370 3.524706 2.883602
H 0.076757 6.218902 4.302109
H -1.316109 5.644115 3.346211
H 1.495617 6.167082 2.209890
H 0.040971 7.165701 1.998280
N -3.539690 -4.815396 -3.279691
C -2.533463 -5.836028 -3.494185
C -1.178931 -5.188500 -3.803370
C -0.127891 -6.266145 -4.026967
C 1.219813 -5.654865 -4.334389
N 1.701983 -4.815396 -3.279691
H -2.838709 -6.378437 -4.431515
H -2.446764 -6.548818 -2.659897
H -1.248585 -4.629419 -4.758606
H -0.873595 -4.524852 -2.980356
H -0.476306 -6.905117 -4.842804
H -0.027672 -6.875659 -3.115940
H 1.202066 -5.065065 -5.279276
H 1.951397 -6.470977 -4.491922
N -5.485651 0.115189 -3.413340
C -5.451393 1.257301 -4.304741
C -4.840378 2.468610 -3.591274
C -4.807552 3.663295 -4.533426
C -4.208941 4.873881 -3.854734
N -2.864814 4.654611 -3.413340
H -6.525719 1.525095 -4.504941
H -4.931645 1.057336 -5.254215
H -5.494622 2.765909 -2.746597
H -3.824503 2.234666 -3.238744
H -5.832005 3.852448 -4.865066
H -4.188648 3.421693 -5.410984
H -4.819939 5.206148 -2.984522
H -4.206633 5.717309 -4.572156
N 5.570830 0.353832 -3.549507
C 5.950981 1.735203 -3.767429
C 4.712043 2.583981 -4.074437
C 5.119135 4.032652 -4.301653
C 3.915007 4.893644 -4.607020
N 2.949994 4.893255 -3.549507
H 6.570614 1.740481 -4.706576
H 6.527350 2.168082 -2.935540
H 4.259914 2.242516 -5.027789
H 3.987037 2.517971 -3.249198
H 5.844331 4.049030 -5.119632
H 5.599528 4.425730 -3.392680
H 3.410352 4.581788 -5.549919
H 4.255527 5.935003 -4.767294
