112

C -2.393752 -1.382033 8.927153
C -1.177889 -0.661994 9.388263
C 0.048606 -1.394234 8.927153
C -1.195803 0.731899 8.927153
H -2.590961 -1.547474 7.881742
H -1.157509 -0.648628 10.499005
H 0.197560 -1.532214 7.850850
H -0.410715 1.445638 9.144366
C -8.313859 -4.959373 -1.193284
C -8.274638 -4.954789 -2.679164
C -8.320903 -3.541143 -3.181709
C -7.093379 -5.677025 -3.167922
H -7.555802 -4.470126 -0.605803
H -9.173838 -5.475543 -3.072353
H -7.521768 -2.855783 -2.879517
H -6.858656 -5.801975 -4.217808
C 5.121630 -2.821026 -0.372828
C 5.132399 -2.825530 -1.856549
Cl 6.609375 -3.663930 -2.376284
C 3.913020 -3.504435 -2.366821
C 5.098269 -1.426338 -2.402439
H 5.924755 -2.372265 0.192749
H 3.755200 -3.599365 -3.430821
H 4.228516 -0.843887 -2.117166
C -0.079230 8.016332 -1.412275
C -0.080714 8.027910 -2.895996
Cl -0.093127 9.726209 -3.415731
C 1.116924 7.311349 -3.406268
C -1.275384 7.298756 -3.441886
H -0.869431 8.487478 -0.846698
H 1.278046 7.222138 -4.470268
H -1.344926 6.254303 -3.156613
N -4.956774 -2.861795 4.741756
C -6.344071 -3.235356 4.764771
C -6.667975 -4.211954 3.637895
N -6.419778 -3.706461 2.352679
H -6.986693 -2.334053 4.687802
H -6.517418 -3.787114 5.713792
H -5.977793 -5.087167 3.811060
H -7.709246 -4.555682 3.743863
N 3.176959 -1.767378 5.097140
C 4.076787 -2.316063 4.071268
C 5.062249 -2.935630 3.263529
Cl 6.209551 -3.819115 4.212916
N 5.158548 -2.911450 1.861217
H 4.253366 -1.353697 3.638124
H 3.785743 -3.293246 4.395730
H 4.785676 -2.502452 2.325005
C 7.246129 -4.736069 4.190904
C 7.372575 -3.483274 5.034980
H 7.096925 -4.462814 3.167191
H 6.411618 -5.312758 4.531382
H 8.140449 -5.316912 4.278394
H 6.478179 -2.902466 4.947604
H 8.207083 -2.906555 4.694598
H 7.521706 -3.756595 6.058711
N -0.005608 3.512108 6.190883
C -0.419835 4.874554 5.921906
C 0.206500 5.370711 4.613786
C -0.233216 6.801327 4.338129
C 0.370749 7.316876 3.052083
N -0.005608 6.538389 1.911075
H 0.032231 5.501825 6.739303
H -1.512568 5.006424 5.908968
H 1.309223 5.408171 4.725582
H -0.082227 4.716569 3.777279
H 0.063900 7.410765 5.195785
H -1.328966 6.835978 4.239888
H 1.482760 7.358945 3.103566
H 0.028114 8.357564 2.891957
N -2.948434 -4.672040 -3.298287
C -1.942207 -5.692672 -3.512781
C -0.587674 -5.045144 -3.821966
C 0.463366 -6.122789 -4.045563
C 1.811070 -5.511509 -4.352985
N 2.293239 -4.672040 -3.298287
H -2.247453 -6.235081 -4.450111
H -1.855507 -6.405462 -2.678493
H -0.657328 -4.486062 -4.777202
H -0.282338 -4.381496 -2.998952
H 0.114951 -6.761760 -4.861400
H 0.563584 -6.732303 -3.134536
H 1.793323 -4.921708 -5.297871
H 2.542654 -6.327621 -4.510518
N -6.545629 0.759400 -4.296108
C -6.511371 1.901512 -5.187509
C -5.900356 3.112822 -4.474042
C -5.867530 4.307507 -5.416194
C -5.268919 5.518093 -4.737502
N -3.924793 5.298822 -4.296108
H -7.585697 2.169307 -5.387709
H -5.991623 1.701547 -6.136983
H -6.554600 3.410121 -3.629365
H -4.884481 2.878878 -4.121512
H -6.891983 4.496659 -5.747834
H -5.248627 4.065905 -6.293752
H -5.879917 5.850360 -3.867290
H -5.266612 6.361521 -5.454924
N 6.040425 0.416129 -3.843132
C 6.420576 1.797500 -4.061054
C 5.181638 2.646278 -4.368062
C 5.588730 4.094949 -4.595278
C 4.384602 4.955941 -4.900645
N 3.419589 4.955551 -3.843132
H 7.040209 1.802777 -5.000202
H 6.996945 2.230378 -3.229166
H 4.729509 2.304812 -5.321415
H 4.456632 2.580267 -3.542823
H 6.313926 4.111326 -5.413257
H 6.069123 4.488027 -3.686305
H 3.879947 4.644085 -5.843545
H 4.725122 5.997300 -5.060919
