112

C -1.674445 -0.181925 6.696587
C -0.458582 0.538114 7.157696
C 0.767914 -0.194126 6.696587
C -0.476496 1.932007 6.696587
H -1.871654 -0.347366 5.651176
H -0.438202 0.551480 8.268439
H 0.916867 -0.332106 5.620284
H 0.308592 2.645746 6.913800
C -6.462629 -3.790227 0.803994
C -6.423408 -3.785644 -0.681887
C -6.469673 -2.371997 -1.184432
C -5.242150 -4.507879 -1.170645
H -5.704572 -3.300980 1.391475
H -7.322609 -4.306397 -1.075076
H -5.670539 -1.686637 -0.882240
H -5.007426 -4.632829 -2.220530
C 4.452484 -2.457612 -0.205786
C 4.463253 -2.462115 -1.689507
Cl 5.940229 -3.300515 -2.209242
C 3.243874 -3.141020 -2.199779
C 4.429123 -1.062924 -2.235397
H 5.255609 -2.008851 0.359791
H 3.086054 -3.235950 -3.263779
H 3.559370 -0.480473 -1.950124
C -0.265544 6.237338 -0.881443
C -0.267029 6.248916 -2.365164
Cl -0.279441 7.947215 -2.884899
C 0.930610 5.532355 -2.875436
C -1.461699 5.519762 -2.911054
H -1.055745 6.708484 -0.315866
H 1.091732 5.443143 -3.939436
H -1.531240 4.475309 -2.625781
N -3.637699 -2.087348 4.500403
C -5.024996 -2.460909 4.523418
C -5.348900 -3.437507 3.396542
N -5.100703 -2.932014 2.111327
H -5.667618 -1.559606 4.446449
H -5.198342 -3.012667 5.472439
H -4.658718 -4.312720 3.569707
H -6.390170 -3.781235 3.502510
N 2.989872 -1.660954 5.027798
C 3.889700 -2.209639 4.001926
C 4.875162 -2.829206 3.194188
Cl 6.022464 -3.712691 4.143575
N 4.971461 -2.805026 1.791876
H 4.066279 -1.247273 3.568783
H 3.598656 -3.186822 4.326388
H 4.598589 -2.396028 2.255664
C 7.059042 -4.629645 4.121563
C 7.185488 -3.376850 4.965639
H 6.909838 -4.356390 3.097850
H 6.224531 -5.206334 4.462040
H 7.953362 -5.210488 4.209053
H 6.291092 -2.796042 4.878263
H 8.019996 -2.800131 4.625256
H 7.334619 -3.650171 5.989370
N 0.054761 3.126260 5.291577
C -0.359465 4.488706 5.022600
C 0.266870 4.984864 3.714481
C -0.172846 6.415480 3.438823
C 0.431118 6.931028 2.152777
N 0.054761 6.152542 1.011769
H 0.092601 5.115978 5.839997
H -1.452198 4.620577 5.009663
H 1.369593 5.022323 3.826276
H -0.021857 4.330721 2.877973
H 0.124270 7.024917 4.296480
H -1.268596 6.450131 3.340582
H 1.543130 6.973098 2.204260
H 0.088484 7.971716 1.992651
N -3.532609 -4.760794 -3.242842
C -2.526382 -5.781426 -3.457336
C -1.171850 -5.133898 -3.766521
C -0.120810 -6.211543 -3.990118
C 1.226894 -5.600263 -4.297540
N 1.709064 -4.760794 -3.242842
H -2.831629 -6.323835 -4.394666
H -2.439683 -6.494216 -2.623048
H -1.241504 -4.574816 -4.721758
H -0.866514 -4.470250 -2.943507
H -0.469225 -6.850514 -4.805955
H -0.020591 -6.821057 -3.079092
H 1.209147 -5.010463 -5.242427
H 1.958478 -6.416375 -4.455073
N -5.485651 0.115189 -3.413340
C -5.451393 1.257301 -4.304741
C -4.840378 2.468610 -3.591274
C -4.807552 3.663295 -4.533426
C -4.208941 4.873881 -3.854734
N -2.864814 4.654611 -3.413340
H -6.525719 1.525095 -4.504941
H -4.931645 1.057336 -5.254215
H -5.494622 2.765909 -2.746597
H -3.824503 2.234666 -3.238744
H -5.832005 3.852448 -4.865066
H -4.188648 3.421693 -5.410984
H -4.819939 5.206148 -2.984522
H -4.206633 5.717309 -4.572156
N 4.635136 -0.070757 -2.847957
C 5.015286 1.310614 -3.065879
C 3.776348 2.159392 -3.372887
C 4.183440 3.608063 -3.600103
C 2.979313 4.469054 -3.905469
N 2.014299 4.468665 -2.847957
H 5.634920 1.315891 -4.005026
H 5.591655 1.743492 -2.233990
H 3.324220 1.817926 -4.326239
H 3.051342 2.093381 -2.547647
H 4.908636 3.624440 -4.418082
H 4.663833 4.001141 -2.691129
H 2.474658 4.157199 -4.848369
H 3.319832 5.510414 -4.065744
