112

C -1.544628 -0.424242 4.622131
C -0.328766 0.295797 5.083240
C 0.897730 -0.436443 4.622131
C -0.346680 1.689690 4.622131
H -1.741837 -0.589683 3.576720
H -0.308386 0.309163 6.193983
H 1.046684 -0.574423 3.545828
H 0.438409 2.403429 4.839344
C -5.803029 -3.193137 0.563379
C -5.763808 -3.188554 -0.922501
C -5.810073 -1.774907 -1.425046
C -4.582549 -3.910789 -1.411259
H -5.044972 -2.703890 1.150860
H -6.663009 -3.709307 -1.315690
H -5.010938 -1.089547 -1.122854
H -4.347826 -4.035740 -2.461145
C 4.732718 -2.628434 -0.144051
C 4.743487 -2.632937 -1.627771
Cl 6.220463 -3.471338 -2.147507
C 3.524108 -3.311842 -2.138043
C 4.709357 -1.233746 -2.173661
H 5.535843 -2.179673 0.421527
H 3.366288 -3.406772 -3.202043
H 3.839604 -0.651295 -1.888388
C -0.258898 6.242598 -0.835933
C -0.260382 6.254176 -2.319654
Cl -0.272794 7.952475 -2.839389
C 0.937256 5.537615 -2.829926
C -1.455052 5.525022 -2.865544
H -1.049099 6.713744 -0.270356
H 1.098378 5.448403 -3.893926
H -1.524593 4.480569 -2.580271
N -2.953196 -1.554216 4.501626
C -4.340494 -1.927777 4.524641
C -4.664397 -2.904375 3.397765
N -4.416201 -2.398882 2.112549
H -4.983115 -1.026474 4.447672
H -4.513840 -2.479535 5.473662
H -3.974215 -3.779588 3.570930
H -5.705668 -3.248103 3.503733
N 2.737617 -1.498828 4.912268
C 3.637446 -2.047513 3.886396
C 4.622908 -2.667079 3.078657
Cl 5.770210 -3.550564 4.028045
N 4.719207 -2.642899 1.676346
H 3.814025 -1.085147 3.453253
H 3.346401 -3.024696 4.210858
H 4.346335 -2.233902 2.140133
C 6.806788 -4.467519 4.006032
C 6.933234 -3.214723 4.850108
H 6.657584 -4.194263 2.982319
H 5.972276 -5.044207 4.346510
H 7.701108 -5.048361 4.093522
H 6.038837 -2.633916 4.762732
H 7.767742 -2.638004 4.509726
H 7.082365 -3.488044 5.873840
N 0.007463 3.427116 5.267739
C -0.406763 4.789561 4.998762
C 0.219572 5.285719 3.690642
C -0.220144 6.716335 3.414985
C 0.383821 7.231883 2.128939
N 0.007463 6.453397 0.987931
H 0.045303 5.416833 5.816159
H -1.499496 4.921432 4.985825
H 1.322295 5.323178 3.802438
H -0.069155 4.631576 2.854135
H 0.076972 7.325773 4.272642
H -1.315894 6.750986 3.316744
H 1.495832 7.273953 2.180422
H 0.041186 8.272571 1.968813
N -3.200273 -3.477081 -2.529183
C -2.194046 -4.497713 -2.743677
C -0.839514 -3.850185 -3.052862
C 0.211526 -4.927830 -3.276459
C 1.559230 -4.316551 -3.583881
N 2.041400 -3.477081 -2.529183
H -2.499293 -5.040122 -3.681008
H -2.107347 -5.210503 -1.909389
H -0.909168 -3.291104 -4.008099
H -0.534178 -3.186538 -2.229848
H -0.136889 -5.566802 -4.092296
H 0.311745 -5.537344 -2.365433
H 1.541483 -3.726750 -4.528768
H 2.290814 -5.132663 -3.741415
N -5.148062 -0.350477 -3.054899
C -5.113804 0.791635 -3.946301
C -4.502790 2.002944 -3.232833
C -4.469964 3.197629 -4.174986
C -3.871352 4.408215 -3.496294
N -2.527226 4.188945 -3.054899
H -6.188130 1.059429 -4.146500
H -4.594056 0.591669 -4.895774
H -5.157033 2.300243 -2.388157
H -3.486914 1.769000 -2.880303
H -5.494416 3.386782 -4.506626
H -3.851060 2.956027 -5.052543
H -4.482350 4.740482 -2.626081
H -3.869045 5.251643 -4.213716
N 4.956730 0.085019 -3.073416
C 5.336880 1.466390 -3.291338
C 4.097942 2.315168 -3.598346
C 4.505034 3.763839 -3.825562
C 3.300907 4.624831 -4.130929
N 2.335893 4.624441 -3.073416
H 5.956514 1.471667 -4.230485
H 5.913249 1.899268 -2.459449
H 3.645814 1.973702 -4.551698
H 3.372936 2.249157 -2.773107
H 5.230230 3.780216 -4.643541
H 4.985428 4.156917 -2.916589
H 2.796252 4.312975 -5.073828
H 3.641426 5.666190 -4.291203
