112

C -1.674445 -0.181925 6.696587
C -0.458582 0.538114 7.157696
C 0.767914 -0.194126 6.696587
C -0.476496 1.932007 6.696587
H -1.871654 -0.347366 5.651176
H -0.438202 0.551480 8.268439
H 0.916867 -0.332106 5.620284
H 0.308592 2.645746 6.913800
C -7.112444 -4.199706 0.180226
C -7.073223 -4.195122 -1.305654
C -7.119488 -2.781476 -1.808200
C -5.891965 -4.917358 -1.794412
H -6.354387 -3.710459 0.767707
H -7.972424 -4.715876 -1.698843
H -6.320354 -2.096116 -1.506007
H -5.657241 -5.042308 -2.844298
C 4.433926 -2.445189 -0.277221
C 4.444695 -2.449692 -1.760941
Cl 5.921671 -3.288092 -2.280677
C 3.225316 -3.128597 -2.271213
C 4.410564 -1.050501 -2.306831
H 5.237051 -1.996427 0.288357
H 3.067495 -3.223527 -3.335213
H 3.540812 -0.468050 -2.021558
C -0.163124 6.300489 -0.844779
C -0.164608 6.312067 -2.328500
Cl -0.177021 8.010366 -2.848235
C 1.033030 5.595507 -2.838772
C -1.359278 5.582914 -2.874390
H -0.953325 6.771635 -0.279202
H 1.194152 5.506295 -3.902772
H -1.428820 4.538460 -2.589117
N -3.637699 -2.087348 4.500403
C -5.024996 -2.460909 4.523418
C -5.348900 -3.437507 3.396542
N -5.100703 -2.932014 2.111327
H -5.667618 -1.559606 4.446449
H -5.198342 -3.012667 5.472439
H -4.658718 -4.312720 3.569707
H -6.390170 -3.781235 3.502510
N 2.989872 -1.660954 5.027798
C 3.889700 -2.209639 4.001926
C 4.875162 -2.829206 3.194188
Cl 6.022464 -3.712691 4.143575
N 4.971461 -2.805026 1.791876
H 4.066279 -1.247273 3.568783
H 3.598656 -3.186822 4.326388
H 4.598589 -2.396028 2.255664
C 7.059042 -4.629645 4.121563
C 7.185488 -3.376850 4.965639
H 6.909838 -4.356390 3.097850
H 6.224531 -5.206334 4.462040
H 7.953362 -5.210488 4.209053
H 6.291092 -2.796042 4.878263
H 8.019996 -2.800131 4.625256
H 7.334619 -3.650171 5.989370
N 0.087065 2.866516 5.400196
C -0.327161 4.228962 5.131219
C 0.299174 4.725119 3.823100
C -0.140542 6.155736 3.547442
C 0.463423 6.671284 2.261396
N 0.087065 5.892797 1.120388
H 0.124905 4.856233 5.948616
H -1.419894 4.360832 5.118282
H 1.401897 4.762579 3.934895
H 0.010447 4.070977 2.986592
H 0.156574 6.765173 4.405099
H -1.236292 6.190386 3.449201
H 1.575434 6.713354 2.312880
H 0.120788 7.711972 2.101270
N -3.539690 -4.815396 -3.279691
C -2.533463 -5.836028 -3.494185
C -1.178931 -5.188500 -3.803370
C -0.127891 -6.266145 -4.026967
C 1.219813 -5.654865 -4.334389
N 1.701983 -4.815396 -3.279691
H -2.838709 -6.378437 -4.431515
H -2.446764 -6.548818 -2.659897
H -1.248585 -4.629419 -4.758606
H -0.873595 -4.524852 -2.980356
H -0.476306 -6.905117 -4.842804
H -0.027672 -6.875659 -3.115940
H 1.202066 -5.065065 -5.279276
H 1.951397 -6.470977 -4.491922
N -5.485651 0.115189 -3.413340
C -5.451393 1.257301 -4.304741
C -4.840378 2.468610 -3.591274
C -4.807552 3.663295 -4.533426
C -4.208941 4.873881 -3.854734
N -2.864814 4.654611 -3.413340
H -6.525719 1.525095 -4.504941
H -4.931645 1.057336 -5.254215
H -5.494622 2.765909 -2.746597
H -3.824503 2.234666 -3.238744
H -5.832005 3.852448 -4.865066
H -4.188648 3.421693 -5.410984
H -4.819939 5.206148 -2.984522
H -4.206633 5.717309 -4.572156
N 4.635136 -0.070757 -2.847957
C 5.015286 1.310614 -3.065879
C 3.776348 2.159392 -3.372887
C 4.183440 3.608063 -3.600103
C 2.979313 4.469054 -3.905469
N 2.014299 4.468665 -2.847957
H 5.634920 1.315891 -4.005026
H 5.591655 1.743492 -2.233990
H 3.324220 1.817926 -4.326239
H 3.051342 2.093381 -2.547647
H 4.908636 3.624440 -4.418082
H 4.663833 4.001141 -2.691129
H 2.474658 4.157199 -4.848369
H 3.319832 5.510414 -4.065744
