112

C -1.442383 -0.707058 4.816116
C -0.226521 0.012982 5.277225
C 0.999975 -0.719258 4.816116
C -0.244435 1.406875 4.816116
H -1.639593 -0.872499 3.770704
H -0.206141 0.026348 6.387968
H 1.148929 -0.857239 3.739813
H 0.540653 2.120613 5.033329
C -5.625038 -3.015279 0.077596
C -5.585817 -3.010696 -1.408284
C -5.632082 -1.597049 -1.910830
C -4.404559 -3.732932 -1.897042
H -4.866981 -2.526032 0.665077
H -6.485018 -3.531449 -1.801473
H -4.832948 -0.911690 -1.608638
H -4.169835 -3.857882 -2.946928
C 5.076908 -2.588255 -0.114596
C 5.087677 -2.592758 -1.598316
Cl 6.564653 -3.431159 -2.118052
C 3.868298 -3.271663 -2.108588
C 5.053546 -1.193567 -2.144206
H 5.880033 -2.139494 0.450982
H 3.710477 -3.366593 -3.172588
H 4.183794 -0.611116 -1.858933
C -0.349598 5.685344 -0.513671
C -0.351083 5.696922 -1.997392
Cl -0.363495 7.395221 -2.517127
C 0.846556 4.980361 -2.507664
C -1.545753 4.967768 -2.543282
H -1.139799 6.156490 0.051906
H 1.007678 4.891150 -3.571664
H -1.615294 3.923315 -2.258009
N -3.272313 -1.731429 4.445818
C -4.659611 -2.104990 4.468833
C -4.983514 -3.081589 3.341957
N -4.735318 -2.576095 2.056741
H -5.302232 -1.203688 4.391864
H -4.832957 -2.656748 5.417854
H -4.293332 -3.956802 3.515122
H -6.024785 -3.425317 3.447925
N 2.645367 -1.457938 4.888649
C 3.545195 -2.006624 3.862777
C 4.530657 -2.626190 3.055038
Cl 5.677960 -3.509675 4.004425
N 4.626957 -2.602010 1.652726
H 3.721775 -1.044257 3.429633
H 3.254151 -2.983806 4.187239
H 4.254085 -2.193012 2.116514
C 6.714537 -4.426629 3.982413
C 6.840984 -3.173834 4.826489
H 6.565333 -4.153374 2.958700
H 5.880026 -5.003318 4.322891
H 7.608857 -5.007472 4.069903
H 5.946587 -2.593026 4.739113
H 7.675492 -2.597115 4.486107
H 6.990114 -3.447155 5.850220
N 0.013897 3.315409 5.197135
C -0.400329 4.677855 4.928158
C 0.226006 5.174013 3.620038
C -0.213710 6.604629 3.344380
C 0.390255 7.120177 2.058334
N 0.013897 6.341691 0.917326
H 0.051737 5.305126 5.745554
H -1.493062 4.809725 4.915220
H 1.328729 5.211472 3.731833
H -0.062721 4.519870 2.783530
H 0.083406 7.214066 4.202037
H -1.309460 6.639279 3.246140
H 1.502266 7.162247 2.109818
H 0.047620 8.160865 1.898208
N -2.899140 -3.943612 -2.914804
C -1.892913 -4.964244 -3.129299
C -0.538381 -4.316716 -3.438484
C 0.512660 -5.394360 -3.662080
C 1.860364 -4.783081 -3.969502
N 2.342533 -3.943612 -2.914804
H -2.198159 -5.506653 -4.066629
H -1.806214 -5.677034 -2.295010
H -0.608034 -3.757634 -4.393720
H -0.233044 -3.653068 -2.615469
H 0.164245 -6.033332 -4.477917
H 0.612878 -6.003875 -2.751054
H 1.842616 -4.193280 -4.914389
H 2.591948 -5.599193 -4.127036
N -5.429673 -0.529190 -3.214833
C -5.395414 0.612922 -4.106235
C -4.784400 1.824231 -3.392768
C -4.751574 3.018916 -4.334920
C -4.152962 4.229502 -3.656228
N -2.808836 4.010232 -3.214833
H -6.469741 0.880716 -4.306435
H -4.875666 0.412957 -5.055708
H -5.438643 2.121530 -2.548091
H -3.768524 1.590287 -3.040238
H -5.776026 3.208069 -4.666560
H -4.132670 2.777314 -5.212478
H -4.763960 4.561769 -2.786015
H -4.150655 5.072930 -4.373650
N 5.157436 -0.022402 -3.108313
C 5.537587 1.358969 -3.326235
C 4.298649 2.207746 -3.633243
C 4.705741 3.656418 -3.860459
C 3.501613 4.517409 -4.165825
N 2.536600 4.517020 -3.108313
H 6.157220 1.364246 -4.265382
H 6.113956 1.791847 -2.494346
H 3.846520 1.866281 -4.586595
H 3.573643 2.141736 -2.808003
H 5.430937 3.672795 -4.678438
H 5.186134 4.049495 -2.951485
H 2.996958 4.205554 -5.108725
H 3.842133 5.558769 -4.326100
